
  EPA STORM WATER MANAGEMENT MODEL - VERSION 5.2 (Build 5.2.4)
  PYSWMM TOOLKIT API - VERSION v1.0 (2025-09-04)
  ------------------------------------------------------------

  Mandaue City Drainage Network Model 
  Generated from GIS data 
  2025-10-15 16:12 
  WARNING 04: minimum elevation drop used for Conduit C_182
  WARNING 04: minimum elevation drop used for Conduit C_225
  WARNING 04: minimum elevation drop used for Conduit C_231
  WARNING 04: minimum elevation drop used for Conduit C_243
  WARNING 04: minimum elevation drop used for Conduit C_244
  WARNING 04: minimum elevation drop used for Conduit C_329
  WARNING 04: minimum elevation drop used for Conduit C_332
  WARNING 04: minimum elevation drop used for Conduit C_342
  WARNING 04: minimum elevation drop used for Conduit C_378
  WARNING 04: minimum elevation drop used for Conduit C_387
  WARNING 04: minimum elevation drop used for Conduit C_395
  WARNING 04: minimum elevation drop used for Conduit C_407
  WARNING 04: minimum elevation drop used for Conduit C_430
  WARNING 04: minimum elevation drop used for Conduit C_437
  WARNING 04: minimum elevation drop used for Conduit C_442
  WARNING 04: minimum elevation drop used for Conduit C_447
  WARNING 04: minimum elevation drop used for Conduit C_462
  WARNING 04: minimum elevation drop used for Conduit C_478
  WARNING 04: minimum elevation drop used for Conduit C_479
  WARNING 04: minimum elevation drop used for Conduit C_483
  WARNING 04: minimum elevation drop used for Conduit C_492
  WARNING 04: minimum elevation drop used for Conduit C_585
  WARNING 04: minimum elevation drop used for Conduit C_587
  WARNING 04: minimum elevation drop used for Conduit C_591
  WARNING 04: minimum elevation drop used for Conduit C_597
  WARNING 04: minimum elevation drop used for Conduit C_600
  WARNING 04: minimum elevation drop used for Conduit C_603
  WARNING 04: minimum elevation drop used for Conduit C_642
  WARNING 04: minimum elevation drop used for Conduit C_649
  WARNING 04: minimum elevation drop used for Conduit C_671
  WARNING 04: minimum elevation drop used for Conduit C_677
  WARNING 04: minimum elevation drop used for Conduit C_737
  WARNING 04: minimum elevation drop used for Conduit C_752
  WARNING 04: minimum elevation drop used for Conduit C_783
  WARNING 04: minimum elevation drop used for Conduit C_786
  WARNING 04: minimum elevation drop used for Conduit C_798
  WARNING 04: minimum elevation drop used for Conduit C_857
  WARNING 04: minimum elevation drop used for Conduit C_909
  WARNING 04: minimum elevation drop used for Conduit C_921
  WARNING 04: minimum elevation drop used for Conduit C_953
  WARNING 04: minimum elevation drop used for Conduit C_964
  WARNING 04: minimum elevation drop used for Conduit C_1131
  WARNING 04: minimum elevation drop used for Conduit C_1136
  WARNING 04: minimum elevation drop used for Conduit C_1138
  WARNING 04: minimum elevation drop used for Conduit C_1140
  WARNING 04: minimum elevation drop used for Conduit C_1141
  WARNING 04: minimum elevation drop used for Conduit C_1144
  WARNING 04: minimum elevation drop used for Conduit C_1146
  WARNING 04: minimum elevation drop used for Conduit C_1147
  WARNING 04: minimum elevation drop used for Conduit C_1234
  WARNING 04: minimum elevation drop used for Conduit C_1260
  WARNING 04: minimum elevation drop used for Conduit C_1280
  WARNING 04: minimum elevation drop used for Conduit C_1347
  WARNING 04: minimum elevation drop used for Conduit C_1348
  WARNING 04: minimum elevation drop used for Conduit C_1351
  WARNING 04: minimum elevation drop used for Conduit C_1356
  WARNING 04: minimum elevation drop used for Conduit C_1364
  WARNING 04: minimum elevation drop used for Conduit C_1365
  WARNING 02: maximum depth increased for Node I-30
  WARNING 02: maximum depth increased for Node I-37
  WARNING 02: maximum depth increased for Node I-75
  WARNING 02: maximum depth increased for Node I-82
  
  ****************
  Analysis Options
  ****************
  Flow Units ............... CMS
  Process Models:
    Rainfall/Runoff ........ YES
    RDII ................... NO
    Snowmelt ............... NO
    Groundwater ............ NO
    Flow Routing ........... YES
    Ponding Allowed ........ YES
    Water Quality .......... NO
  Infiltration Method ...... HORTON
  Flow Routing Method ...... DYNWAVE
  Surcharge Method ......... EXTRAN
  Starting Date ............ 01/01/2024 00:00:00
  Ending Date .............. 01/02/2024 00:00:00
  Antecedent Dry Days ...... 0.0
  Report Time Step ......... 00:30:00
  Wet Time Step ............ 00:05:00
  Dry Time Step ............ 01:00:00
  Routing Time Step ........ 5.00 sec
  Variable Time Step ....... YES
  Maximum Trials ........... 8
  Number of Threads ........ 1
  Head Tolerance ........... 0.001500 m
  
  
  **************************        Volume         Depth
  Runoff Quantity Continuity     hectare-m            mm
  **************************     ---------       -------
  Total Precipitation ......       205.220       265.700
  Evaporation Loss .........         0.000         0.000
  Infiltration Loss ........       121.800       157.695
  Surface Runoff ...........        82.789       107.187
  Final Storage ............         0.645         0.836
  Continuity Error (%) .....        -0.006
  
  
  **************************        Volume        Volume
  Flow Routing Continuity        hectare-m      10^6 ltr
  **************************     ---------     ---------
  Dry Weather Inflow .......         0.000         0.000
  Wet Weather Inflow .......        82.778       827.787
  Groundwater Inflow .......         0.000         0.000
  RDII Inflow ..............         0.000         0.000
  External Inflow ..........         0.000         0.000
  External Outflow .........        61.970       619.704
  Flooding Loss ............        19.716       197.165
  Evaporation Loss .........         0.000         0.000
  Exfiltration Loss ........         0.000         0.000
  Initial Stored Volume ....         0.000         0.000
  Final Stored Volume ......         0.962         9.619
  Continuity Error (%) .....         0.157
  
  
  *************************
  Highest Continuity Errors
  *************************
  Node I-114 (15.26%)
  Node I-30 (10.35%)
  Node ISD-351 (8.30%)
  Node I-121 (3.98%)
  Node I-106 (3.82%)
  
  
  ***************************
  Time-Step Critical Elements
  ***************************
  Link C_101 (13.40%)
  Link C_473 (6.90%)
  Link C_123 (4.38%)
  Link C_908 (4.15%)
  Link C_471 (3.25%)
  
  
  ********************************
  Highest Flow Instability Indexes
  ********************************
  Link C_629 (131)
  Link C_630 (128)
  Link C_149 (128)
  Link C_633 (102)
  Link C_631 (99)
  
  
  *********************************
  Most Frequent Nonconverging Nodes
  *********************************
  Node O-0 (83.05%)
  Node O-1 (83.05%)
  Node O-2 (83.05%)
  Node O-3 (83.05%)
  Node O-4 (83.05%)
  
  
  *************************
  Routing Time Step Summary
  *************************
  Minimum Time Step           :     0.50 sec
  Average Time Step           :     0.73 sec
  Maximum Time Step           :     5.00 sec
  % of Time in Steady State   :     0.00
  Average Iterations per Step :     7.85
  % of Steps Not Converging   :    83.05
  Time Step Frequencies       :
      5.000 -  3.155 sec      :     1.16 %
      3.155 -  1.991 sec      :     0.84 %
      1.991 -  1.256 sec      :     3.54 %
      1.256 -  0.792 sec      :    19.87 %
      0.792 -  0.500 sec      :    74.59 %
  
  
  ***************************
  Subcatchment Runoff Summary
  ***************************
  
  ------------------------------------------------------------------------------------------------------------------------------
                            Total      Total      Total      Total     Imperv       Perv      Total       Total     Peak  Runoff
                           Precip      Runon       Evap      Infil     Runoff     Runoff     Runoff      Runoff   Runoff   Coeff
  Subcatchment                 mm         mm         mm         mm         mm         mm         mm    10^6 ltr      CMS
  ------------------------------------------------------------------------------------------------------------------------------
  SC_I-0                   265.70       0.00       0.00     249.04       0.00      16.66      16.66        0.49     0.03   0.063
  SC_I-1                   265.70       0.00       0.00     250.62       0.00      15.09      15.09        0.64     0.04   0.057
  SC_I-2                   265.70       0.00       0.00     111.45     114.70      38.40     153.11        4.52     0.12   0.576
  SC_I-3                   265.70       0.00       0.00     251.81       0.00      13.90      13.90        0.46     0.03   0.052
  SC_I-4                   265.70       0.00       0.00      98.04     131.57      34.82     166.38        3.75     0.10   0.626
  SC_I-5                   265.70       0.00       0.00     164.37      91.93       8.34     100.27        9.91     0.24   0.377
  SC_I-6                   265.70       0.00       0.00     164.14      91.50       9.10     100.59        6.32     0.15   0.379
  SC_I-7                   265.70       0.00       0.00     161.88      92.19      10.83     103.02        2.06     0.05   0.388
  SC_I-8                   265.70       0.00       0.00     159.71      92.36      13.00     105.36        0.63     0.02   0.397
  SC_I-9                   265.70       0.00       0.00     163.50      92.03       9.20     101.24        5.39     0.13   0.381
  SC_I-10                  265.70       0.00       0.00     251.05       0.00      14.65      14.65        0.49     0.03   0.055
  SC_I-11                  265.70       0.00       0.00     252.72       0.00      12.98      12.98        0.78     0.05   0.049
  SC_I-12                  265.70       0.00       0.00     251.50       0.00      14.20      14.20        0.78     0.05   0.053
  SC_I-13                  265.70       0.00       0.00     164.14      91.96       8.57     100.53        7.64     0.18   0.378
  SC_I-14                  265.70       0.00       0.00     164.15      91.96       8.56     100.51        7.00     0.17   0.378
  SC_I-15                  265.70       0.00       0.00     163.90      91.99       8.81     100.80        6.40     0.16   0.379
  SC_I-16                  265.70       0.00       0.00     159.90      92.35      12.81     105.15        0.32     0.01   0.396
  SC_I-17                  265.70       0.00       0.00     250.39       0.00      15.32      15.32        0.19     0.01   0.058
  SC_I-20                  265.70       0.00       0.00     162.21      92.16      10.50     102.66        3.09     0.08   0.386
  SC_I-21                  265.70       0.00       0.00     253.89       0.00      11.81      11.81        0.71     0.04   0.044
  SC_I-22                  265.70       0.00       0.00     253.35       0.00      12.35      12.35        0.58     0.03   0.046
  SC_I-23                  265.70       0.00       0.00     163.04      92.08       9.67     101.75        4.41     0.11   0.383
  SC_I-24                  265.70       0.00       0.00     161.53      92.22      11.18     103.40        1.79     0.05   0.389
  SC_I-26                  265.70       0.00       0.00     163.23      92.06       9.47     101.54        6.17     0.15   0.382
  SC_I-27                  265.70       0.00       0.00      98.82     131.40      34.04     165.44        3.94     0.10   0.623
  SC_I-28                  265.70       0.00       0.00     160.16      92.33      12.55     104.88        0.36     0.01   0.395
  SC_I-29                  265.70       0.00       0.00      98.41     131.27      34.71     165.98        4.41     0.12   0.625
  SC_I-30                  265.70       0.00       0.00      97.54     131.67      35.31     166.98        1.74     0.05   0.628
  SC_I-31                  265.70       0.00       0.00      97.47     131.68      35.38     167.06        1.86     0.05   0.629
  SC_I-32                  265.70       0.00       0.00      96.32     131.93      36.53     168.46        0.29     0.01   0.634
  SC_I-33                  265.70       0.00       0.00      98.49     131.47      34.36     165.83        5.13     0.14   0.624
  SC_I-34                  265.70       0.00       0.00     194.09      60.07      11.03      71.10        5.80     0.15   0.268
  SC_I-35                  265.70       0.00       0.00     162.58      92.13      10.13     102.26        2.70     0.07   0.385
  SC_I-36                  265.70       0.00       0.00     109.63     117.76      37.04     154.80       10.34     0.27   0.583
  SC_I-37                  265.70       0.00       0.00      97.42     131.70      35.43     167.13        1.96     0.05   0.629
  SC_I-38                  265.70       0.00       0.00     162.84      92.10       9.87     101.97        4.52     0.11   0.384
  SC_I-39                  265.70       0.00       0.00     161.35      92.24      11.35     103.59        1.45     0.04   0.390
  SC_I-40                  265.70       0.00       0.00     100.11     130.03      34.07     164.10        6.49     0.17   0.618
  SC_I-41                  265.70       0.00       0.00      99.00     131.36      33.85     165.21        6.93     0.18   0.622
  SC_I-42                  265.70       0.00       0.00      97.08     131.77      35.77     167.54        1.03     0.03   0.631
  SC_I-43                  265.70       0.00       0.00      98.85     131.39      34.00     165.40        5.59     0.15   0.623
  SC_I-44                  265.70       0.00       0.00     162.24      92.16      10.47     102.63        3.28     0.08   0.386
  SC_I-45                  265.70       0.00       0.00     162.47      92.14      10.24     102.38        1.93     0.05   0.385
  SC_I-46                  265.70       0.00       0.00      96.04     131.98      36.81     168.79        0.22     0.01   0.635
  SC_I-47                  265.70       0.00       0.00      98.70     131.42      34.15     165.57        5.91     0.16   0.623
  SC_I-48                  265.70       0.00       0.00      96.93     131.80      35.92     167.72        1.28     0.04   0.631
  SC_I-49                  265.70       0.00       0.00      99.05     131.35      33.80     165.15        8.12     0.21   0.622
  SC_I-50                  265.70       0.00       0.00     164.29      91.94       8.42     100.36        7.36     0.18   0.378
  SC_I-51                  265.70       0.00       0.00      97.06     131.77      35.80     167.57        0.81     0.02   0.631
  SC_I-52                  265.70       0.00       0.00      99.05     131.35      33.80     165.15        6.42     0.17   0.622
  SC_I-53                  265.70       0.00       0.00      97.68     131.64      35.17     166.81        2.01     0.05   0.628
  SC_I-54                  265.70       0.00       0.00     164.24      91.94       8.47     100.41        9.59     0.23   0.378
  SC_I-55                  265.70       0.00       0.00      97.84     131.61      35.01     166.62        2.74     0.07   0.627
  SC_I-56                  265.70       0.00       0.00      97.96     132.67      33.56     166.24        5.88     0.15   0.626
  SC_I-57                  265.70       0.00       0.00      98.69     131.43      34.16     165.58        5.57     0.15   0.623
  SC_I-58                  265.70       0.00       0.00      98.96     130.49      34.96     165.45        3.61     0.10   0.623
  SC_I-59                  265.70       0.00       0.00      98.03     131.57      34.83     166.39        2.89     0.08   0.626
  SC_I-60                  265.70       0.00       0.00     216.58      36.66      12.19      48.85        1.43     0.04   0.184
  SC_I-61                  265.70       0.00       0.00     251.59       0.00      14.11      14.11        0.51     0.03   0.053
  SC_I-63                  265.70       0.00       0.00      98.35     131.50      34.50     166.00        4.18     0.11   0.625
  SC_I-64                  265.70       0.00       0.00      97.59     131.66      35.27     166.93        1.77     0.05   0.628
  SC_I-65                  265.70       0.00       0.00     252.14       0.00      13.56      13.56        0.43     0.03   0.051
  SC_I-66                  265.70       0.00       0.00     159.75      92.36      12.96     105.31        0.45     0.01   0.396
  SC_I-67                  265.70       0.00       0.00      98.48     131.47      34.38     165.85        4.55     0.12   0.624
  SC_I-68                  265.70       0.00       0.00      97.20     131.74      35.65     167.39        1.17     0.03   0.630
  SC_I-69                  265.70       0.00       0.00      85.00     149.57      29.25     178.82        7.43     0.19   0.673
  SC_I-71                  265.70       0.00       0.00     250.39       0.00      15.31      15.31        0.39     0.02   0.058
  SC_I-72                  265.70       0.00       0.00      97.98     131.58      34.87     166.45        2.15     0.06   0.626
  SC_I-73                  265.70       0.00       0.00      97.40     131.70      35.45     167.15        1.59     0.04   0.629
  SC_I-74                  265.70       0.00       0.00      97.74     131.63      35.12     166.75        1.90     0.05   0.628
  SC_I-75                  265.70       0.00       0.00      78.93     157.39      27.35     184.74        7.92     0.20   0.695
  SC_I-76                  265.70       0.00       0.00      98.58     130.57      35.34     165.91        1.71     0.05   0.624
  SC_I-77                  265.70       0.00       0.00      98.07     131.56      34.78     166.34        3.34     0.09   0.626
  SC_I-78                  265.70       0.00       0.00     252.54       0.00      13.16      13.16        0.28     0.02   0.050
  SC_I-79                  265.70       0.00       0.00     162.69      92.12      10.01     102.13        2.79     0.07   0.384
  SC_I-80                  265.70       0.00       0.00     161.05      92.26      11.65     103.91        1.14     0.03   0.391
  SC_I-81                  265.70       0.00       0.00     252.20       0.00      13.50      13.50        1.15     0.07   0.051
  SC_I-82                  265.70       0.00       0.00      93.68     138.99      31.21     170.20        9.67     0.25   0.641
  SC_I-83                  265.70       0.00       0.00     253.38       0.00      12.33      12.33        1.25     0.07   0.046
  SC_I-84                  265.70       0.00       0.00     162.24      92.16      10.47     102.63        1.55     0.04   0.386
  SC_I-85                  265.70       0.00       0.00     252.94       0.00      12.76      12.76        0.38     0.02   0.048
  SC_I-86                  265.70       0.00       0.00     162.91      92.10       9.79     101.89        2.40     0.06   0.383
  SC_I-87                  265.70       0.00       0.00     161.91      92.19      10.80     102.99        2.87     0.07   0.388
  SC_I-88                  265.70       0.00       0.00     163.80      92.00       8.91     100.91        5.67     0.14   0.380
  SC_I-89                  265.70       0.00       0.00     160.73      92.29      11.98     104.26        0.48     0.01   0.392
  SC_I-90                  265.70       0.00       0.00     162.76      92.11       9.95     102.06        2.83     0.07   0.384
  SC_I-91                  265.70       0.00       0.00     163.62      92.02       9.08     101.10        4.47     0.11   0.381
  SC_I-92                  265.70       0.00       0.00     163.87      91.99       8.83     100.82        6.22     0.15   0.379
  SC_I-93                  265.70       0.00       0.00     164.13      91.96       8.57     100.53        6.33     0.15   0.378
  SC_I-94                  265.70       0.00       0.00     163.36      92.05       9.34     101.39        4.08     0.10   0.382
  SC_I-95                  265.70       0.00       0.00     162.84      92.10       9.87     101.97        2.81     0.07   0.384
  SC_I-96                  265.70       0.00       0.00     164.16      91.95       8.54     100.50        7.60     0.18   0.378
  SC_I-97                  265.70       0.00       0.00     163.73      92.01       8.98     100.98        5.21     0.13   0.380
  SC_I-98                  265.70       0.00       0.00     238.97       8.98      17.70      26.68        0.08     0.00   0.100
  SC_I-99                  265.70       0.00       0.00     163.69      92.01       9.02     101.03        5.23     0.13   0.380
  SC_I-100                 265.70       0.00       0.00     151.25     101.56      12.15     113.72        1.08     0.03   0.428
  SC_I-101                 265.70       0.00       0.00     162.99      92.09       9.72     101.80        3.06     0.08   0.383
  SC_I-102                 265.70       0.00       0.00     166.94      88.62       9.22      97.84        6.54     0.16   0.368
  SC_I-103                 265.70       0.00       0.00     194.70      58.27      12.28      70.55        3.42     0.10   0.266
  SC_I-104                 265.70       0.00       0.00     162.13      92.17      10.57     102.74        2.07     0.05   0.387
  SC_I-105                 265.70       0.00       0.00     160.31      92.32      12.40     104.71        0.38     0.01   0.394
  SC_I-106                 265.70       0.00       0.00     162.55      92.13      10.15     102.29        4.90     0.12   0.385
  SC_I-107                 265.70       0.00       0.00     253.94       0.00      11.76      11.76        0.47     0.03   0.044
  SC_I-108                 265.70       0.00       0.00     161.12      92.26      11.59     103.84        1.59     0.04   0.391
  SC_I-109                 265.70       0.00       0.00     248.63       0.00      17.08      17.08        0.26     0.02   0.064
  SC_I-110                 265.70       0.00       0.00     164.12      91.96       8.58     100.54        6.86     0.17   0.378
  SC_I-111                 265.70       0.00       0.00     159.61      92.37      13.10     105.47        0.25     0.01   0.397
  SC_I-112                 265.70       0.00       0.00     160.17      92.33      12.54     104.86        0.78     0.02   0.395
  SC_I-113                 265.70       0.00       0.00     160.10      92.33      12.61     104.94        0.71     0.02   0.395
  SC_I-114                 265.70       0.00       0.00     254.04       0.00      11.66      11.66        0.60     0.03   0.044
  SC_I-115                 265.70       0.00       0.00     161.63      92.21      11.07     103.29        1.50     0.04   0.389
  SC_I-117                 265.70       0.00       0.00      94.34     136.09      33.99     170.08        4.29     0.11   0.640
  SC_I-118                 265.70       0.00       0.00      97.24     131.73      35.61     167.34        1.29     0.04   0.630
  SC_I-119                 265.70       0.00       0.00     162.74      92.11       9.97     102.08        6.63     0.17   0.384
  SC_I-120                 265.70       0.00       0.00      97.30     131.72      35.55     167.27        1.44     0.04   0.630
  SC_I-121                 265.70       0.00       0.00      77.27     157.77      29.54     187.32        0.17     0.00   0.705
  SC_I-122                 265.70       0.00       0.00     163.00      92.09       9.70     101.79        1.31     0.03   0.383
  SC_I-123                 265.70       0.00       0.00     247.53       0.00      18.18      18.18        0.14     0.01   0.068
  SC_I-124                 265.70       0.00       0.00      98.12     131.55      34.73     166.28        2.64     0.07   0.626
  SC_I-125                 265.70       0.00       0.00      98.15     131.54      34.70     166.24        3.25     0.09   0.626
  SC_I-126                 265.70       0.00       0.00     223.72      28.50      13.28      41.79        0.84     0.03   0.157
  SC_I-127                 265.70       0.00       0.00     163.27      92.06       9.43     101.49        4.92     0.12   0.382
  SC_I-128                 265.70       0.00       0.00     223.73      27.71      14.08      41.79        0.66     0.02   0.157
  SC_I-129                 265.70       0.00       0.00     246.94       0.00      18.77      18.77        0.11     0.01   0.071
  SC_I-130                 265.70       0.00       0.00       0.00     262.25       0.00     262.25        9.59     0.22   0.987
  SC_I-131                 265.70       0.00       0.00     118.46     106.26      39.90     146.16        4.28     0.12   0.550
  SC_I-132                 265.70       0.00       0.00     105.44     123.46      35.38     158.85        9.58     0.25   0.598
  SC_I-133                 265.70       0.00       0.00     160.75      92.28      11.96     104.25        0.89     0.02   0.392
  SC_I-134                 265.70       0.00       0.00     248.08       0.00      17.62      17.62        0.12     0.01   0.066
  SC_I-135                 265.70       0.00       0.00     159.34      92.38      13.36     105.75        0.14     0.00   0.398
  SC_I-136                 265.70       0.00       0.00     164.13      91.96       8.57     100.53        5.72     0.14   0.378
  SC_I-137                 265.70       0.00       0.00     253.50       0.00      12.20      12.20        0.47     0.03   0.046
  SC_I-138                 265.70       0.00       0.00     160.97      92.27      11.74     104.00        0.99     0.03   0.391
  SC_I-139                 265.70       0.00       0.00     161.51      92.22      11.20     103.42        1.20     0.03   0.389
  SC_I-140                 265.70       0.00       0.00      97.42     132.79      34.11     166.90        5.90     0.16   0.628
  SC_I-141                 265.70       0.00       0.00     254.54       0.00      11.16      11.16        0.61     0.04   0.042
  SC_I-142                 265.70       0.00       0.00      98.05     131.56      34.80     166.37        1.55     0.04   0.626
  SC_I-143                 265.70       0.00       0.00      96.94     131.80      35.91     167.71        1.06     0.03   0.631
  SC_ISD-1                 265.70       0.00       0.00      96.36     131.92      36.49     168.41        0.30     0.01   0.634
  SC_ISD-2                 265.70       0.00       0.00      96.46     131.90      36.39     168.28        0.36     0.01   0.633
  SC_ISD-3                 265.70       0.00       0.00      96.51     131.89      36.34     168.23        0.37     0.01   0.633
  SC_ISD-4                 265.70       0.00       0.00      96.45     131.90      36.40     168.30        0.29     0.01   0.633
  SC_ISD-5                 265.70       0.00       0.00      96.59     131.87      36.27     168.14        0.37     0.01   0.633
  SC_ISD-6                 265.70       0.00       0.00      96.59     131.87      36.26     168.13        0.36     0.01   0.633
  SC_ISD-7                 265.70       0.00       0.00      96.48     131.89      36.37     168.26        0.26     0.01   0.633
  SC_ISD-8                 265.70       0.00       0.00      96.66     131.85      36.19     168.04        0.37     0.01   0.632
  SC_ISD-9                 265.70       0.00       0.00      96.69     131.85      36.17     168.02        0.37     0.01   0.632
  SC_ISD-10                265.70       0.00       0.00      96.54     131.88      36.31     168.19        0.28     0.01   0.633
  SC_ISD-11                265.70       0.00       0.00      96.58     131.87      36.27     168.14        0.29     0.01   0.633
  SC_ISD-12                265.70       0.00       0.00      96.46     131.90      36.40     168.29        0.23     0.01   0.633
  SC_ISD-13                265.70       0.00       0.00      96.45     131.90      36.40     168.30        0.23     0.01   0.633
  SC_ISD-14                265.70       0.00       0.00      96.55     131.88      36.31     168.18        0.28     0.01   0.633
  SC_ISD-15                265.70       0.00       0.00      96.65     131.86      36.20     168.06        0.36     0.01   0.633
  SC_ISD-16                265.70       0.00       0.00      96.66     131.85      36.19     168.05        0.35     0.01   0.632
  SC_ISD-17                265.70       0.00       0.00      96.54     131.88      36.32     168.20        0.28     0.01   0.633
  SC_ISD-18                265.70       0.00       0.00      96.47     131.89      36.38     168.28        0.24     0.01   0.633
  SC_ISD-19                265.70       0.00       0.00      96.44     131.90      36.41     168.31        0.22     0.01   0.633
  SC_ISD-20                265.70       0.00       0.00      96.59     131.87      36.27     168.14        0.22     0.01   0.633
  SC_ISD-21                265.70       0.00       0.00      96.49     131.89      36.36     168.25        0.24     0.01   0.633
  SC_ISD-22                265.70       0.00       0.00      96.71     131.84      36.15     167.99        0.37     0.01   0.632
  SC_ISD-23                265.70       0.00       0.00      96.62     131.86      36.24     168.10        0.31     0.01   0.633
  SC_ISD-24                265.70       0.00       0.00      96.46     131.90      36.39     168.29        0.22     0.01   0.633
  SC_ISD-25                265.70       0.00       0.00      96.47     131.89      36.38     168.28        0.22     0.01   0.633
  SC_ISD-26                265.70       0.00       0.00      96.47     131.90      36.39     168.28        0.23     0.01   0.633
  SC_ISD-27                265.70       0.00       0.00      96.67     131.85      36.18     168.03        0.37     0.01   0.632
  SC_ISD-28                265.70       0.00       0.00      96.58     131.87      36.28     168.15        0.31     0.01   0.633
  SC_ISD-29                265.70       0.00       0.00      96.30     131.93      36.55     168.48        0.15     0.00   0.634
  SC_ISD-30                265.70       0.00       0.00      96.37     131.92      36.48     168.40        0.15     0.00   0.634
  SC_ISD-31                265.70       0.00       0.00      96.37     131.92      36.48     168.40        0.17     0.00   0.634
  SC_ISD-32                265.70       0.00       0.00      96.42     131.90      36.43     168.34        0.22     0.01   0.634
  SC_ISD-33                265.70       0.00       0.00      96.43     131.90      36.43     168.33        0.23     0.01   0.634
  SC_ISD-34                265.70       0.00       0.00      96.36     131.92      36.49     168.41        0.18     0.01   0.634
  SC_ISD-35                265.70       0.00       0.00      96.47     131.89      36.38     168.27        0.22     0.01   0.633
  SC_ISD-36                265.70       0.00       0.00      96.55     131.88      36.30     168.18        0.24     0.01   0.633
  SC_ISD-37                265.70       0.00       0.00      96.43     131.90      36.42     168.33        0.19     0.01   0.634
  SC_ISD-38                265.70       0.00       0.00      96.54     131.88      36.31     168.19        0.24     0.01   0.633
  SC_ISD-39                265.70       0.00       0.00      96.40     131.91      36.46     168.37        0.17     0.00   0.634
  SC_ISD-40                265.70       0.00       0.00      96.53     131.88      36.32     168.20        0.23     0.01   0.633
  SC_ISD-41                265.70       0.00       0.00      96.40     131.91      36.46     168.37        0.19     0.01   0.634
  SC_ISD-42                265.70       0.00       0.00      96.40     131.91      36.45     168.36        0.22     0.01   0.634
  SC_ISD-43                265.70       0.00       0.00      96.35     131.92      36.50     168.42        0.21     0.01   0.634
  SC_ISD-44                265.70       0.00       0.00      96.27     131.94      36.59     168.52        0.18     0.00   0.634
  SC_ISD-45                265.70       0.00       0.00      96.37     131.91      36.48     168.39        0.25     0.01   0.634
  SC_ISD-46                265.70       0.00       0.00      96.32     131.93      36.54     168.46        0.22     0.01   0.634
  SC_ISD-47                265.70       0.00       0.00      96.27     131.94      36.58     168.51        0.19     0.01   0.634
  SC_ISD-48                265.70       0.00       0.00      96.60     131.87      36.26     168.12        0.41     0.01   0.633
  SC_ISD-49                265.70       0.00       0.00      96.60     131.87      36.26     168.12        0.40     0.01   0.633
  SC_ISD-50                265.70       0.00       0.00      96.46     131.90      36.40     168.29        0.25     0.01   0.633
  SC_ISD-51                265.70       0.00       0.00      96.49     131.89      36.36     168.25        0.31     0.01   0.633
  SC_ISD-52                265.70       0.00       0.00      96.48     131.89      36.37     168.26        0.30     0.01   0.633
  SC_ISD-53                265.70       0.00       0.00      96.39     131.91      36.46     168.37        0.21     0.01   0.634
  SC_ISD-54                265.70       0.00       0.00      96.38     131.91      36.47     168.38        0.20     0.01   0.634
  SC_ISD-55                265.70       0.00       0.00      96.44     131.90      36.41     168.31        0.21     0.01   0.633
  SC_ISD-56                265.70       0.00       0.00      96.49     131.89      36.36     168.25        0.21     0.01   0.633
  SC_ISD-57                265.70       0.00       0.00      96.37     131.92      36.48     168.40        0.21     0.01   0.634
  SC_ISD-58                265.70       0.00       0.00      96.48     131.89      36.37     168.26        0.29     0.01   0.633
  SC_ISD-59                265.70       0.00       0.00      96.46     131.90      36.40     168.30        0.31     0.01   0.633
  SC_ISD-60                265.70       0.00       0.00      96.23     131.94      36.62     168.56        0.21     0.01   0.634
  SC_ISD-61                265.70       0.00       0.00      96.21     131.95      36.64     168.59        0.21     0.01   0.635
  SC_ISD-62                265.70       0.00       0.00      96.38     131.69      36.74     168.43        0.22     0.01   0.634
  SC_ISD-63                265.70       0.00       0.00      96.15     131.96      36.71     168.67        0.20     0.01   0.635
  SC_ISD-64                265.70       0.00       0.00      96.17     131.96      36.69     168.65        0.21     0.01   0.635
  SC_ISD-65                265.70       0.00       0.00      98.51     129.92      36.20     166.12        1.16     0.03   0.625
  SC_ISD-66                265.70       0.00       0.00     249.30       0.00      16.40      16.40        0.19     0.01   0.062
  SC_ISD-67                265.70       0.00       0.00     160.10      92.33      12.61     104.94        0.82     0.02   0.395
  SC_ISD-68                265.70       0.00       0.00     159.33      92.38      13.38     105.77        0.39     0.01   0.398
  SC_ISD-69                265.70       0.00       0.00     160.84      92.28      11.87     104.15        0.69     0.02   0.392
  SC_ISD-70                265.70       0.00       0.00     159.20      92.39      13.51     105.91        0.34     0.01   0.399
  SC_ISD-71                265.70       0.00       0.00     159.44      92.38      13.26     105.64        0.39     0.01   0.398
  SC_ISD-72                265.70       0.00       0.00     159.37      92.38      13.34     105.72        0.32     0.01   0.398
  SC_ISD-73                265.70       0.00       0.00     159.46      92.38      13.25     105.63        0.29     0.01   0.398
  SC_ISD-74                265.70       0.00       0.00     159.44      92.38      13.27     105.64        0.22     0.01   0.398
  SC_ISD-75                265.70       0.00       0.00     159.48      92.37      13.23     105.60        0.20     0.01   0.397
  SC_ISD-76                265.70       0.00       0.00     159.48      92.37      13.23     105.60        0.18     0.01   0.397
  SC_ISD-77                265.70       0.00       0.00     159.68      92.36      13.03     105.39        0.22     0.01   0.397
  SC_ISD-78                265.70       0.00       0.00     159.75      92.36      12.96     105.32        0.22     0.01   0.396
  SC_ISD-79                265.70       0.00       0.00     159.50      92.37      13.20     105.58        0.15     0.00   0.397
  SC_ISD-80                265.70       0.00       0.00     159.57      92.37      13.14     105.51        0.16     0.00   0.397
  SC_ISD-81                265.70       0.00       0.00     159.56      92.37      13.15     105.52        0.17     0.00   0.397
  SC_ISD-82                265.70       0.00       0.00     159.43      92.38      13.28     105.66        0.14     0.00   0.398
  SC_ISD-83                265.70       0.00       0.00     159.29      92.39      13.41     105.80        0.12     0.00   0.398
  SC_ISD-84                265.70       0.00       0.00     159.32      92.39      13.39     105.77        0.12     0.00   0.398
  SC_ISD-85                265.70       0.00       0.00     159.38      92.38      13.32     105.71        0.14     0.00   0.398
  SC_ISD-86                265.70       0.00       0.00     159.52      92.37      13.18     105.56        0.15     0.00   0.397
  SC_ISD-87                265.70       0.00       0.00     159.86      92.35      12.85     105.20        0.14     0.00   0.396
  SC_ISD-88                265.70       0.00       0.00     159.43      92.38      13.28     105.66        0.14     0.00   0.398
  SC_ISD-89                265.70       0.00       0.00     159.58      92.37      13.13     105.50        0.14     0.00   0.397
  SC_ISD-90                265.70       0.00       0.00     159.39      92.38      13.32     105.70        0.20     0.01   0.398
  SC_ISD-91                265.70       0.00       0.00     159.36      92.38      13.35     105.73        0.21     0.01   0.398
  SC_ISD-92                265.70       0.00       0.00     159.16      92.40      13.55     105.94        0.15     0.00   0.399
  SC_ISD-93                265.70       0.00       0.00     159.09      92.40      13.62     106.02        0.13     0.00   0.399
  SC_ISD-94                265.70       0.00       0.00     159.08      92.40      13.63     106.03        0.13     0.00   0.399
  SC_ISD-95                265.70       0.00       0.00     159.10      92.40      13.61     106.01        0.15     0.00   0.399
  SC_ISD-96                265.70       0.00       0.00     159.07      92.40      13.64     106.04        0.14     0.00   0.399
  SC_ISD-97                265.70       0.00       0.00     159.07      92.40      13.64     106.04        0.14     0.00   0.399
  SC_ISD-98                265.70       0.00       0.00     159.07      92.40      13.64     106.04        0.14     0.00   0.399
  SC_ISD-99                265.70       0.00       0.00     159.11      92.40      13.60     106.00        0.15     0.00   0.399
  SC_ISD-100               265.70       0.00       0.00     159.12      92.40      13.59     105.99        0.15     0.00   0.399
  SC_ISD-101               265.70       0.00       0.00     159.31      92.39      13.39     105.78        0.21     0.01   0.398
  SC_ISD-102               265.70       0.00       0.00     159.31      92.39      13.40     105.79        0.21     0.01   0.398
  SC_ISD-103               265.70       0.00       0.00     159.11      92.40      13.60     106.00        0.14     0.00   0.399
  SC_ISD-104               265.70       0.00       0.00     159.14      92.40      13.57     105.97        0.14     0.00   0.399
  SC_ISD-105               265.70       0.00       0.00     159.17      92.40      13.54     105.93        0.15     0.00   0.399
  SC_ISD-106               265.70       0.00       0.00     159.43      92.38      13.28     105.66        0.22     0.01   0.398
  SC_ISD-107               265.70       0.00       0.00     159.48      92.37      13.22     105.60        0.22     0.01   0.397
  SC_ISD-108               265.70       0.00       0.00     245.98       0.00      19.73      19.73        0.03     0.00   0.074
  SC_ISD-109               265.70       0.00       0.00     253.42       0.00      12.29      12.29        0.65     0.04   0.046
  SC_ISD-110               265.70       0.00       0.00     183.54      66.79      14.94      81.73        0.14     0.00   0.308
  SC_ISD-111               265.70       0.00       0.00     207.65      40.93      16.87      57.80        0.09     0.00   0.218
  SC_ISD-112               265.70       0.00       0.00     156.87      95.27      12.91     108.18        0.19     0.01   0.407
  SC_ISD-113               265.70       0.00       0.00     110.75     112.41      41.76     154.17        0.20     0.01   0.580
  SC_ISD-114               265.70       0.00       0.00     103.43     122.42      38.99     161.40        0.23     0.01   0.607
  SC_ISD-115               265.70       0.00       0.00      98.68     128.98      37.10     166.08        0.29     0.01   0.625
  SC_ISD-116               265.70       0.00       0.00      96.92     131.35      36.46     167.82        0.27     0.01   0.632
  SC_ISD-117               265.70       0.00       0.00      96.50     132.11      36.09     168.20        0.35     0.01   0.633
  SC_ISD-118               265.70       0.00       0.00      96.31     132.37      36.01     168.38        0.34     0.01   0.634
  SC_ISD-119               265.70       0.00       0.00      96.43     132.13      36.16     168.28        0.30     0.01   0.633
  SC_ISD-120               265.70       0.00       0.00      96.61     131.87      36.25     168.11        0.28     0.01   0.633
  SC_ISD-121               265.70       0.00       0.00      96.74     131.84      36.11     167.94        0.36     0.01   0.632
  SC_ISD-122               265.70       0.00       0.00      96.75     131.84      36.11     167.94        0.35     0.01   0.632
  SC_ISD-123               265.70       0.00       0.00      96.59     131.87      36.26     168.13        0.27     0.01   0.633
  SC_ISD-124               265.70       0.00       0.00      96.61     131.86      36.24     168.10        0.28     0.01   0.633
  SC_ISD-125               265.70       0.00       0.00      96.52     131.88      36.33     168.21        0.24     0.01   0.633
  SC_ISD-126               265.70       0.00       0.00      96.50     131.89      36.36     168.24        0.22     0.01   0.633
  SC_ISD-127               265.70       0.00       0.00      96.59     131.87      36.26     168.13        0.28     0.01   0.633
  SC_ISD-128               265.70       0.00       0.00      96.82     131.82      36.03     167.85        0.43     0.01   0.632
  SC_ISD-129               265.70       0.00       0.00      96.74     131.84      36.11     167.95        0.37     0.01   0.632
  SC_ISD-130               265.70       0.00       0.00      96.51     131.89      36.34     168.23        0.23     0.01   0.633
  SC_ISD-131               265.70       0.00       0.00      96.60     131.87      36.25     168.12        0.28     0.01   0.633
  SC_ISD-132               265.70       0.00       0.00      96.60     131.87      36.26     168.12        0.27     0.01   0.633
  SC_ISD-133               265.70       0.00       0.00      96.63     131.86      36.22     168.08        0.27     0.01   0.633
  SC_ISD-134               265.70       0.00       0.00      96.57     131.87      36.28     168.15        0.24     0.01   0.633
  SC_ISD-135               265.70       0.00       0.00      96.56     131.88      36.29     168.17        0.24     0.01   0.633
  SC_ISD-136               265.70       0.00       0.00      96.62     131.86      36.23     168.09        0.27     0.01   0.633
  SC_ISD-137               265.70       0.00       0.00      96.64     131.86      36.21     168.07        0.28     0.01   0.633
  SC_ISD-138               265.70       0.00       0.00      96.65     131.86      36.20     168.06        0.29     0.01   0.633
  SC_ISD-139               265.70       0.00       0.00      96.50     131.89      36.35     168.24        0.22     0.01   0.633
  SC_ISD-140               265.70       0.00       0.00      96.47     131.90      36.39     168.28        0.21     0.01   0.633
  SC_ISD-141               265.70       0.00       0.00      96.59     131.87      36.26     168.13        0.29     0.01   0.633
  SC_ISD-142               265.70       0.00       0.00      96.71     131.85      36.15     167.99        0.37     0.01   0.632
  SC_ISD-143               265.70       0.00       0.00      96.68     131.85      36.17     168.02        0.36     0.01   0.632
  SC_ISD-144               265.70       0.00       0.00      96.57     131.87      36.29     168.16        0.29     0.01   0.633
  SC_ISD-145               265.70       0.00       0.00      96.55     131.88      36.30     168.18        0.29     0.01   0.633
  SC_ISD-146               265.70       0.00       0.00      96.53     131.88      36.32     168.20        0.28     0.01   0.633
  SC_ISD-147               265.70       0.00       0.00      96.65     131.86      36.21     168.06        0.37     0.01   0.633
  SC_ISD-148               265.70       0.00       0.00      96.65     131.86      36.21     168.06        0.38     0.01   0.633
  SC_ISD-149               265.70       0.00       0.00      96.48     131.89      36.37     168.26        0.27     0.01   0.633
  SC_ISD-150               265.70       0.00       0.00      96.49     131.89      36.36     168.25        0.28     0.01   0.633
  SC_ISD-151               265.70       0.00       0.00      97.03     131.78      35.83     167.60        0.72     0.02   0.631
  SC_ISD-152               265.70       0.00       0.00     161.45      92.23      11.26     103.49        0.82     0.02   0.389
  SC_ISD-153               265.70       0.00       0.00     160.67      92.29      12.04     104.33        0.58     0.02   0.393
  SC_ISD-154               265.70       0.00       0.00     159.77      92.35      12.94     105.30        0.24     0.01   0.396
  SC_ISD-155               265.70       0.00       0.00       0.00     263.36       0.00     263.36        0.67     0.02   0.991
  SC_ISD-156               265.70       0.00       0.00       3.86     254.48       5.17     259.65        0.57     0.01   0.977
  SC_ISD-157               265.70       0.00       0.00      15.41     227.94      20.46     248.40        0.54     0.01   0.935
  SC_ISD-158               265.70       0.00       0.00      26.47     202.67      34.91     237.58        0.59     0.01   0.894
  SC_ISD-159               265.70       0.00       0.00      19.19     219.28      25.45     244.72        0.54     0.01   0.921
  SC_ISD-160               265.70       0.00       0.00      81.67     151.92      30.99     182.91        0.29     0.01   0.688
  SC_ISD-161               265.70       0.00       0.00      87.26     144.29      33.10     177.40        0.25     0.01   0.668
  SC_ISD-162               265.70       0.00       0.00      91.30     138.98      34.37     173.36        0.34     0.01   0.652
  SC_ISD-163               265.70       0.00       0.00      94.10     135.28      35.29     170.58        0.37     0.01   0.642
  SC_ISD-164               265.70       0.00       0.00      95.83     132.70      36.23     168.93        0.22     0.01   0.636
  SC_ISD-165               265.70       0.00       0.00      95.48     133.22      36.04     169.26        0.24     0.01   0.637
  SC_ISD-166               265.70       0.00       0.00      96.34     132.14      36.25     168.39        0.28     0.01   0.634
  SC_ISD-167               265.70       0.00       0.00      96.52     131.88      36.34     168.22        0.27     0.01   0.633
  SC_ISD-168               265.70       0.00       0.00      97.15     131.75      35.70     167.46        0.73     0.02   0.630
  SC_ISD-169               265.70       0.00       0.00      97.30     131.72      35.55     167.27        0.85     0.02   0.630
  SC_ISD-170               265.70       0.00       0.00      96.74     131.84      36.11     167.95        0.43     0.01   0.632
  SC_ISD-171               265.70       0.00       0.00      96.54     131.88      36.32     168.20        0.35     0.01   0.633
  SC_ISD-172               265.70       0.00       0.00      96.53     131.88      36.33     168.21        0.30     0.01   0.633
  SC_ISD-173               265.70       0.00       0.00      96.51     131.89      36.34     168.22        0.28     0.01   0.633
  SC_ISD-174               265.70       0.00       0.00      96.50     131.89      36.36     168.25        0.28     0.01   0.633
  SC_ISD-175               265.70       0.00       0.00      96.79     131.83      36.06     167.89        0.50     0.01   0.632
  SC_ISD-176               265.70       0.00       0.00      96.80     131.83      36.05     167.88        0.50     0.01   0.632
  SC_ISD-177               265.70       0.00       0.00      96.55     131.88      36.31     168.19        0.30     0.01   0.633
  SC_ISD-178               265.70       0.00       0.00      96.50     131.89      36.35     168.24        0.31     0.01   0.633
  SC_ISD-179               265.70       0.00       0.00      96.52     131.88      36.33     168.22        0.29     0.01   0.633
  SC_ISD-180               265.70       0.00       0.00      96.48     131.89      36.38     168.27        0.27     0.01   0.633
  SC_ISD-181               265.70       0.00       0.00      96.59     131.87      36.26     168.13        0.36     0.01   0.633
  SC_ISD-182               265.70       0.00       0.00      96.57     131.87      36.28     168.15        0.35     0.01   0.633
  SC_ISD-183               265.70       0.00       0.00      96.45     131.90      36.40     168.30        0.27     0.01   0.633
  SC_ISD-184               265.70       0.00       0.00      96.67     131.85      36.19     168.04        0.42     0.01   0.632
  SC_ISD-185               265.70       0.00       0.00      96.67     131.85      36.18     168.04        0.43     0.01   0.632
  SC_ISD-186               265.70       0.00       0.00      96.47     131.90      36.39     168.28        0.29     0.01   0.633
  SC_ISD-187               265.70       0.00       0.00      96.48     131.89      36.37     168.26        0.32     0.01   0.633
  SC_ISD-188               265.70       0.00       0.00      96.59     131.87      36.26     168.13        0.44     0.01   0.633
  SC_ISD-189               265.70       0.00       0.00      96.54     131.88      36.31     168.19        0.44     0.01   0.633
  SC_ISD-190               265.70       0.00       0.00      96.34     131.92      36.51     168.43        0.32     0.01   0.634
  SC_ISD-191               265.70       0.00       0.00      96.38     131.91      36.48     168.39        0.36     0.01   0.634
  SC_ISD-192               265.70       0.00       0.00      96.51     131.89      36.35     168.23        0.47     0.01   0.633
  SC_ISD-193               265.70       0.00       0.00      96.63     131.86      36.22     168.08        0.57     0.02   0.633
  SC_ISD-194               265.70       0.00       0.00      96.46     131.90      36.40     168.29        0.40     0.01   0.633
  SC_ISD-195               265.70       0.00       0.00      96.53     131.88      36.32     168.21        0.44     0.01   0.633
  SC_ISD-196               265.70       0.00       0.00      96.69     131.85      36.16     168.01        0.56     0.02   0.632
  SC_ISD-197               265.70       0.00       0.00      96.61     131.87      36.25     168.11        0.41     0.01   0.633
  SC_ISD-198               265.70       0.00       0.00      96.66     131.85      36.19     168.04        0.36     0.01   0.632
  SC_ISD-199               265.70       0.00       0.00      97.19     131.74      35.66     167.41        0.70     0.02   0.630
  SC_ISD-200               265.70       0.00       0.00      97.14     131.75      35.71     167.47        0.63     0.02   0.630
  SC_ISD-201               265.70       0.00       0.00      96.56     131.88      36.30     168.17        0.25     0.01   0.633
  SC_ISD-202               265.70       0.00       0.00      96.51     131.89      36.35     168.23        0.23     0.01   0.633
  SC_ISD-203               265.70       0.00       0.00      96.55     131.88      36.31     168.18        0.26     0.01   0.633
  SC_ISD-204               265.70       0.00       0.00      96.60     131.87      36.26     168.12        0.30     0.01   0.633
  SC_ISD-205               265.70       0.00       0.00      96.59     131.87      36.26     168.13        0.29     0.01   0.633
  SC_ISD-206               265.70       0.00       0.00      96.47     131.90      36.39     168.28        0.22     0.01   0.633
  SC_ISD-207               265.70       0.00       0.00      96.44     131.90      36.41     168.31        0.21     0.01   0.633
  SC_ISD-208               265.70       0.00       0.00      96.52     131.88      36.33     168.21        0.24     0.01   0.633
  SC_ISD-209               265.70       0.00       0.00      96.62     131.86      36.23     168.10        0.30     0.01   0.633
  SC_ISD-210               265.70       0.00       0.00      96.58     131.87      36.27     168.14        0.26     0.01   0.633
  SC_ISD-211               265.70       0.00       0.00      96.50     131.89      36.35     168.24        0.22     0.01   0.633
  SC_ISD-212               265.70       0.00       0.00      96.62     131.86      36.23     168.10        0.26     0.01   0.633
  SC_ISD-213               265.70       0.00       0.00      96.79     131.83      36.07     167.90        0.34     0.01   0.632
  SC_ISD-215               265.70       0.00       0.00      96.42     131.91      36.43     168.34        0.46     0.01   0.634
  SC_ISD-216               265.70       0.00       0.00      96.34     131.92      36.51     168.44        0.43     0.01   0.634
  SC_ISD-217               265.70       0.00       0.00      96.20     131.95      36.65     168.60        0.28     0.01   0.635
  SC_ISD-218               265.70       0.00       0.00      96.34     131.92      36.52     168.44        0.35     0.01   0.634
  SC_ISD-219               265.70       0.00       0.00      96.61     131.87      36.24     168.11        0.50     0.01   0.633
  SC_ISD-220               265.70       0.00       0.00      96.69     131.85      36.17     168.02        0.52     0.01   0.632
  SC_ISD-221               265.70       0.00       0.00      96.63     131.86      36.22     168.08        0.43     0.01   0.633
  SC_ISD-222               265.70       0.00       0.00      96.53     131.88      36.32     168.20        0.31     0.01   0.633
  SC_ISD-223               265.70       0.00       0.00      96.36     131.92      36.49     168.41        0.22     0.01   0.634
  SC_ISD-224               265.70       0.00       0.00      96.30     131.93      36.56     168.49        0.20     0.01   0.634
  SC_ISD-225               265.70       0.00       0.00      96.35     131.92      36.50     168.42        0.22     0.01   0.634
  SC_ISD-226               265.70       0.00       0.00      96.61     131.87      36.24     168.11        0.42     0.01   0.633
  SC_ISD-227               265.70       0.00       0.00      96.69     131.85      36.16     168.01        0.46     0.01   0.632
  SC_ISD-228               265.70       0.00       0.00      96.48     131.89      36.37     168.27        0.28     0.01   0.633
  SC_ISD-229               265.70       0.00       0.00      96.32     131.93      36.53     168.46        0.19     0.01   0.634
  SC_ISD-230               265.70       0.00       0.00      96.52     131.88      36.33     168.21        0.31     0.01   0.633
  SC_ISD-231               265.70       0.00       0.00      96.53     131.88      36.32     168.21        0.32     0.01   0.633
  SC_ISD-232               265.70       0.00       0.00      96.56     131.88      36.29     168.17        0.34     0.01   0.633
  SC_ISD-233               265.70       0.00       0.00      96.40     131.91      36.45     168.36        0.22     0.01   0.634
  SC_ISD-234               265.70       0.00       0.00      96.67     131.85      36.18     168.04        0.42     0.01   0.632
  SC_ISD-235               265.70       0.00       0.00      96.71     131.85      36.15     167.99        0.43     0.01   0.632
  SC_ISD-236               265.70       0.00       0.00      96.62     131.86      36.24     168.10        0.34     0.01   0.633
  SC_ISD-237               265.70       0.00       0.00      96.67     131.85      36.19     168.04        0.34     0.01   0.632
  SC_ISD-238               265.70       0.00       0.00      96.41     131.91      36.44     168.35        0.21     0.01   0.634
  SC_ISD-239               265.70       0.00       0.00      96.87     131.81      35.99     167.80        0.45     0.01   0.632
  SC_ISD-240               265.70       0.00       0.00      96.82     131.82      36.03     167.85        0.42     0.01   0.632
  SC_ISD-241               265.70       0.00       0.00      96.72     131.84      36.14     167.98        0.41     0.01   0.632
  SC_ISD-242               265.70       0.00       0.00      96.68     131.85      36.17     168.02        0.43     0.01   0.632
  SC_ISD-243               265.70       0.00       0.00      96.66     131.85      36.19     168.05        0.37     0.01   0.632
  SC_ISD-244               265.70       0.00       0.00      96.61     131.87      36.25     168.11        0.29     0.01   0.633
  SC_ISD-245               265.70       0.00       0.00      96.84     131.82      36.01     167.83        0.45     0.01   0.632
  SC_ISD-246               265.70       0.00       0.00      96.61     131.87      36.25     168.11        0.37     0.01   0.633
  SC_ISD-247               265.70       0.00       0.00      96.88     131.81      35.98     167.79        0.68     0.02   0.631
  SC_ISD-248               265.70       0.00       0.00      96.45     131.90      36.40     168.30        0.31     0.01   0.633
  SC_ISD-249               265.70       0.00       0.00      96.69     131.85      36.16     168.01        0.53     0.01   0.632
  SC_ISD-250               265.70       0.00       0.00      96.37     131.92      36.49     168.40        0.25     0.01   0.634
  SC_ISD-251               265.70       0.00       0.00      96.49     131.89      36.37     168.26        0.33     0.01   0.633
  SC_ISD-252               265.70       0.00       0.00      96.74     131.84      36.11     167.95        0.51     0.01   0.632
  SC_ISD-253               265.70       0.00       0.00      96.50     132.77      35.29     168.06        0.94     0.03   0.633
  SC_ISD-254               265.70       0.00       0.00      93.29     136.56      34.78     171.34        0.45     0.01   0.645
  SC_ISD-255               265.70       0.00       0.00      96.75     132.28      35.57     167.85        0.76     0.02   0.632
  SC_ISD-256               265.70       0.00       0.00     101.79     125.69      37.17     162.86        0.87     0.02   0.613
  SC_ISD-257               265.70       0.00       0.00     195.36      56.20      13.75      69.95        0.45     0.01   0.263
  SC_ISD-258               265.70       0.00       0.00     160.76      92.28      11.95     104.23        0.66     0.02   0.392
  SC_ISD-259               265.70       0.00       0.00     160.58      92.30      12.13     104.42        0.62     0.02   0.393
  SC_ISD-260               265.70       0.00       0.00     160.41      92.31      12.30     104.61        0.55     0.02   0.394
  SC_ISD-261               265.70       0.00       0.00     159.87      92.35      12.83     105.18        0.29     0.01   0.396
  SC_ISD-262               265.70       0.00       0.00     159.42      92.38      13.29     105.67        0.15     0.00   0.398
  SC_ISD-263               265.70       0.00       0.00     159.55      92.37      13.15     105.52        0.18     0.01   0.397
  SC_ISD-264               265.70       0.00       0.00     159.44      92.38      13.27     105.64        0.14     0.00   0.398
  SC_ISD-265               265.70       0.00       0.00     160.73      92.29      11.98     104.26        0.62     0.02   0.392
  SC_ISD-266               265.70       0.00       0.00     160.83      92.28      11.88     104.16        0.63     0.02   0.392
  SC_ISD-267               265.70       0.00       0.00     160.12      92.33      12.59     104.92        0.31     0.01   0.395
  SC_ISD-268               265.70       0.00       0.00     161.11      92.26      11.60     103.86        0.86     0.02   0.391
  SC_ISD-269               265.70       0.00       0.00     161.23      92.25      11.47     103.72        1.03     0.03   0.390
  SC_ISD-270               265.70       0.00       0.00     160.17      92.33      12.53     104.86        0.36     0.01   0.395
  SC_ISD-271               265.70       0.00       0.00     160.40      92.31      12.31     104.62        0.43     0.01   0.394
  SC_ISD-272               265.70       0.00       0.00     160.46      92.30      12.24     104.55        0.36     0.01   0.393
  SC_ISD-273               265.70       0.00       0.00      97.63     130.09      37.08     167.17        0.20     0.01   0.629
  SC_ISD-274               265.70       0.00       0.00     100.46     126.15      38.24     164.39        0.15     0.00   0.619
  SC_ISD-275               265.70       0.00       0.00     110.34     112.94      41.64     154.59        0.20     0.01   0.582
  SC_ISD-276               265.70       0.00       0.00     162.62      88.95      13.54     102.49        0.13     0.00   0.386
  SC_ISD-277               265.70       0.00       0.00     194.10      55.45      15.81      71.25        0.09     0.00   0.268
  SC_ISD-278               265.70       0.00       0.00     236.88      10.04      18.73      28.77        0.04     0.00   0.108
  SC_ISD-279               265.70       0.00       0.00     246.39       0.00      19.31      19.31        0.03     0.00   0.073
  SC_ISD-280               265.70       0.00       0.00     246.37       0.00      19.33      19.33        0.03     0.00   0.073
  SC_ISD-281               265.70       0.00       0.00     159.51      92.37      13.20     105.57        0.14     0.00   0.397
  SC_ISD-282               265.70       0.00       0.00     159.58      92.37      13.13     105.50        0.14     0.00   0.397
  SC_ISD-283               265.70       0.00       0.00     159.42      92.38      13.29     105.67        0.11     0.00   0.398
  SC_ISD-285               265.70       0.00       0.00     159.87      92.35      12.84     105.19        0.23     0.01   0.396
  SC_ISD-286               265.70       0.00       0.00     159.88      92.35      12.83     105.18        0.25     0.01   0.396
  SC_ISD-287               265.70       0.00       0.00     159.89      92.35      12.82     105.17        0.24     0.01   0.396
  SC_ISD-288               265.70       0.00       0.00     159.50      92.37      13.21     105.58        0.14     0.00   0.397
  SC_ISD-289               265.70       0.00       0.00     159.42      92.38      13.29     105.66        0.13     0.00   0.398
  SC_ISD-290               265.70       0.00       0.00     159.46      92.38      13.25     105.63        0.14     0.00   0.398
  SC_ISD-291               265.70       0.00       0.00     159.54      92.37      13.17     105.54        0.15     0.00   0.397
  SC_ISD-292               265.70       0.00       0.00     159.48      92.37      13.23     105.61        0.14     0.00   0.397
  SC_ISD-293               265.70       0.00       0.00     159.47      92.37      13.24     105.61        0.13     0.00   0.397
  SC_ISD-294               265.70       0.00       0.00     159.80      92.35      12.91     105.26        0.20     0.01   0.396
  SC_ISD-295               265.70       0.00       0.00     159.97      92.34      12.73     105.07        0.23     0.01   0.395
  SC_ISD-296               265.70       0.00       0.00     159.91      92.34      12.80     105.14        0.21     0.01   0.396
  SC_ISD-297               265.70       0.00       0.00     159.89      92.35      12.82     105.16        0.23     0.01   0.396
  SC_ISD-298               265.70       0.00       0.00     159.59      92.37      13.12     105.48        0.16     0.00   0.397
  SC_ISD-299               265.70       0.00       0.00     159.49      92.37      13.22     105.60        0.14     0.00   0.397
  SC_ISD-300               265.70       0.00       0.00     159.44      92.38      13.27     105.64        0.14     0.00   0.398
  SC_ISD-301               265.70       0.00       0.00     159.44      92.38      13.27     105.65        0.14     0.00   0.398
  SC_ISD-302               265.70       0.00       0.00     159.58      92.37      13.12     105.49        0.18     0.01   0.397
  SC_ISD-303               265.70       0.00       0.00     159.39      92.38      13.32     105.70        0.14     0.00   0.398
  SC_ISD-304               265.70       0.00       0.00     159.51      92.37      13.20     105.57        0.18     0.01   0.397
  SC_ISD-305               265.70       0.00       0.00     159.31      92.39      13.40     105.79        0.13     0.00   0.398
  SC_ISD-306               265.70       0.00       0.00     159.38      92.38      13.32     105.71        0.16     0.00   0.398
  SC_ISD-307               265.70       0.00       0.00     159.04      92.40      13.67     106.07        0.09     0.00   0.399
  SC_ISD-308               265.70       0.00       0.00     159.48      92.37      13.23     105.60        0.17     0.00   0.397
  SC_ISD-309               265.70       0.00       0.00     159.63      92.36      13.08     105.44        0.22     0.01   0.397
  SC_ISD-310               265.70       0.00       0.00     159.50      92.37      13.21     105.58        0.17     0.01   0.397
  SC_ISD-311               265.70       0.00       0.00     159.55      92.37      13.16     105.53        0.18     0.01   0.397
  SC_ISD-312               265.70       0.00       0.00     159.55      92.37      13.16     105.52        0.19     0.01   0.397
  SC_ISD-313               265.70       0.00       0.00     159.53      92.37      13.18     105.55        0.17     0.01   0.397
  SC_ISD-314               265.70       0.00       0.00     159.52      92.37      13.19     105.56        0.17     0.00   0.397
  SC_ISD-315               265.70       0.00       0.00     159.51      92.37      13.20     105.57        0.16     0.00   0.397
  SC_ISD-316               265.70       0.00       0.00     159.55      92.37      13.16     105.52        0.18     0.01   0.397
  SC_ISD-317               265.70       0.00       0.00     159.62      92.36      13.09     105.45        0.20     0.01   0.397
  SC_ISD-318               265.70       0.00       0.00     159.79      92.35      12.92     105.27        0.24     0.01   0.396
  SC_ISD-319               265.70       0.00       0.00     159.72      92.36      12.99     105.35        0.22     0.01   0.396
  SC_ISD-320               265.70       0.00       0.00     159.83      92.35      12.87     105.22        0.25     0.01   0.396
  SC_ISD-321               265.70       0.00       0.00     159.78      92.35      12.93     105.28        0.23     0.01   0.396
  SC_ISD-322               265.70       0.00       0.00     159.47      92.37      13.23     105.61        0.14     0.00   0.397
  SC_ISD-323               265.70       0.00       0.00     159.61      92.37      13.10     105.47        0.18     0.01   0.397
  SC_ISD-324               265.70       0.00       0.00     159.62      92.36      13.08     105.45        0.18     0.01   0.397
  SC_ISD-325               265.70       0.00       0.00     159.47      92.37      13.23     105.61        0.15     0.00   0.397
  SC_ISD-326               265.70       0.00       0.00     159.43      92.38      13.28     105.66        0.13     0.00   0.398
  SC_ISD-327               265.70       0.00       0.00     159.43      92.38      13.28     105.66        0.13     0.00   0.398
  SC_ISD-328               265.70       0.00       0.00     159.43      92.38      13.28     105.65        0.14     0.00   0.398
  SC_ISD-329               265.70       0.00       0.00     159.56      92.37      13.15     105.52        0.17     0.00   0.397
  SC_ISD-330               265.70       0.00       0.00     159.44      92.38      13.26     105.64        0.15     0.00   0.398
  SC_ISD-331               265.70       0.00       0.00     159.36      92.38      13.34     105.73        0.14     0.00   0.398
  SC_ISD-332               265.70       0.00       0.00     159.35      92.38      13.36     105.74        0.14     0.00   0.398
  SC_ISD-333               265.70       0.00       0.00     159.38      92.38      13.33     105.71        0.15     0.00   0.398
  SC_ISD-334               265.70       0.00       0.00     159.44      92.38      13.26     105.64        0.17     0.00   0.398
  SC_ISD-335               265.70       0.00       0.00     159.37      92.38      13.34     105.72        0.14     0.00   0.398
  SC_ISD-336               265.70       0.00       0.00     159.40      92.38      13.31     105.69        0.14     0.00   0.398
  SC_ISD-337               265.70       0.00       0.00     159.55      92.37      13.16     105.53        0.17     0.00   0.397
  SC_ISD-338               265.70       0.00       0.00     159.51      92.37      13.20     105.57        0.16     0.00   0.397
  SC_ISD-339               265.70       0.00       0.00     159.46      92.38      13.25     105.62        0.13     0.00   0.398
  SC_ISD-340               265.70       0.00       0.00     159.51      92.37      13.20     105.57        0.14     0.00   0.397
  SC_ISD-341               265.70       0.00       0.00     159.56      92.37      13.15     105.51        0.16     0.00   0.397
  SC_ISD-342               265.70       0.00       0.00     159.50      92.37      13.21     105.58        0.15     0.00   0.397
  SC_ISD-343               265.70       0.00       0.00     159.54      92.37      13.17     105.54        0.17     0.00   0.397
  SC_ISD-344               265.70       0.00       0.00     159.46      92.38      13.25     105.63        0.16     0.00   0.398
  SC_ISD-345               265.70       0.00       0.00     159.72      92.36      12.99     105.34        0.22     0.01   0.396
  SC_ISD-346               265.70       0.00       0.00     159.79      92.35      12.92     105.27        0.24     0.01   0.396
  SC_ISD-347               265.70       0.00       0.00     159.71      92.36      13.00     105.36        0.22     0.01   0.397
  SC_ISD-348               265.70       0.00       0.00     159.80      92.35      12.91     105.26        0.23     0.01   0.396
  SC_ISD-349               265.70       0.00       0.00     159.54      92.37      13.17     105.54        0.16     0.00   0.397
  SC_ISD-350               265.70       0.00       0.00     158.84      92.42      13.87     106.29        0.05     0.00   0.400
  SC_ISD-351               265.70       0.00       0.00     159.24      92.39      13.47     105.86        0.10     0.00   0.398
  SC_ISD-352               265.70       0.00       0.00     159.47      92.37      13.24     105.61        0.15     0.00   0.397
  SC_ISD-353               265.70       0.00       0.00     159.36      92.38      13.34     105.73        0.13     0.00   0.398
  SC_ISD-354               265.70       0.00       0.00     159.39      92.38      13.31     105.69        0.14     0.00   0.398
  SC_ISD-355               265.70       0.00       0.00     159.41      92.38      13.30     105.68        0.14     0.00   0.398
  SC_ISD-356               265.70       0.00       0.00     160.07      92.33      12.63     104.97        0.36     0.01   0.395
  SC_ISD-357               265.70       0.00       0.00     160.04      92.33      12.66     105.00        0.37     0.01   0.395
  SC_ISD-358               265.70       0.00       0.00     159.42      92.38      13.28     105.66        0.16     0.00   0.398
  SC_ISD-359               265.70       0.00       0.00     159.84      92.35      12.86     105.21        0.24     0.01   0.396
  SC_ISD-360               265.70       0.00       0.00     159.19      92.39      13.52     105.92        0.09     0.00   0.399
  SC_ISD-361               265.70       0.00       0.00     159.19      92.39      13.51     105.91        0.09     0.00   0.399
  SC_ISD-362               265.70       0.00       0.00     159.45      92.38      13.25     105.63        0.14     0.00   0.398
  SC_ISD-363               265.70       0.00       0.00     159.52      92.37      13.19     105.56        0.15     0.00   0.397
  SC_ISD-364               265.70       0.00       0.00     159.48      92.37      13.23     105.60        0.14     0.00   0.397
  SC_ISD-365               265.70       0.00       0.00     159.47      92.37      13.24     105.61        0.14     0.00   0.397
  SC_ISD-366               265.70       0.00       0.00     162.12      92.17      10.59     102.76        1.95     0.05   0.387
  SC_ISD-367               265.70       0.00       0.00      69.91     168.24      26.01     194.25        2.61     0.07   0.731
  SC_ISD-368               265.70       0.00       0.00      19.49     218.69      25.95     244.64        0.33     0.01   0.921
  SC_ISD-369               265.70       0.00       0.00      17.43     223.40      23.22     246.62        0.40     0.01   0.928
  SC_ISD-370               265.70       0.00       0.00      15.49     227.91      20.65     248.56        0.34     0.01   0.935
  SC_ISD-371               265.70       0.00       0.00      14.80     229.49      19.74     249.24        0.33     0.01   0.938
  SC_ISD-372               265.70       0.00       0.00      14.69     229.72      19.59     249.30        0.42     0.01   0.938
  SC_ISD-373               265.70       0.00       0.00      15.84     227.08      21.10     248.18        0.43     0.01   0.934
  SC_ISD-374               265.70       0.00       0.00      16.97     224.47      22.62     247.09        0.33     0.01   0.930
  SC_ISD-375               265.70       0.00       0.00      18.46     221.05      24.59     245.64        0.31     0.01   0.924
  SC_ISD-376               265.70       0.00       0.00      20.53     216.26      27.29     243.55        0.39     0.01   0.917
  SC_ISD-377               265.70       0.00       0.00      23.28     209.95      30.92     240.87        0.33     0.01   0.907
  SC_ISD-378               265.70       0.00       0.00      25.33     205.25      33.66     238.92        0.23     0.01   0.899
  SC_ISD-379               265.70       0.00       0.00      27.15     201.05      36.09     237.14        0.19     0.00   0.893
  SC_ISD-380               265.70       0.00       0.00      29.48     195.73      39.07     234.80        0.29     0.01   0.884
  SC_ISD-381               265.70       0.00       0.00      30.43     193.58      40.25     233.83        0.31     0.01   0.880
  SC_ISD-382               265.70       0.00       0.00      32.47     188.88      42.99     231.88        0.21     0.01   0.873
  SC_ISD-383               265.70       0.00       0.00      60.41     180.75      23.29     204.03        0.17     0.00   0.768
  SC_ISD-384               265.70       0.00       0.00      63.56     176.48      24.39     200.86        0.26     0.01   0.756
  SC_ISD-385               265.70       0.00       0.00      67.09     171.70      25.64     197.33        0.33     0.01   0.743
  SC_ISD-386               265.70       0.00       0.00      69.96     167.76      26.75     194.52        0.26     0.01   0.732
  SC_ISD-387               265.70       0.00       0.00      71.63     165.43      27.47     192.91        0.18     0.00   0.726
  SC_ISD-388               265.70       0.00       0.00      72.98     163.59      27.99     191.58        0.17     0.00   0.721
  SC_ISD-389               265.70       0.00       0.00      74.02     162.24      28.28     190.52        0.23     0.01   0.717
  SC_ISD-390               265.70       0.00       0.00      75.65     160.09      28.78     188.86        0.31     0.01   0.711
  SC_ISD-391               265.70       0.00       0.00      76.38     159.05      29.10     188.15        0.26     0.01   0.708
  SC_ISD-392               265.70       0.00       0.00      76.96     158.27      29.33     187.59        0.25     0.01   0.706
  SC_ISD-393               265.70       0.00       0.00      77.41     157.71      29.40     187.11        0.31     0.01   0.704
  SC_ISD-394               265.70       0.00       0.00      77.55     157.47      29.53     187.00        0.24     0.01   0.704
  SC_ISD-395               265.70       0.00       0.00      77.46     157.51      29.62     187.14        0.16     0.00   0.704
  SC_ISD-396               265.70       0.00       0.00      77.46     157.51      29.62     187.13        0.16     0.00   0.704
  SC_ISD-397               265.70       0.00       0.00      75.63     160.10      28.80     188.89        0.24     0.01   0.711
  SC_ISD-398               265.70       0.00       0.00      65.67     173.72      24.94     198.66        0.34     0.01   0.748
  SC_ISD-399               265.70       0.00       0.00      75.65     160.09      28.77     188.86        0.26     0.01   0.711
  SC_ISD-400               265.70       0.00       0.00      75.16     160.66      28.73     189.39        0.16     0.00   0.713
  SC_ISD-401               265.70       0.00       0.00      74.97     160.92      28.66     189.58        0.16     0.00   0.714
  SC_ISD-402               265.70       0.00       0.00      75.06     160.88      28.57     189.45        0.24     0.01   0.713
  SC_ISD-403               265.70       0.00       0.00      75.13     160.85      28.49     189.34        0.31     0.01   0.713
  SC_ISD-404               265.70       0.00       0.00      75.65     160.09      28.77     188.86        0.25     0.01   0.711
  SC_ISD-405               265.70       0.00       0.00      75.73     159.88      28.96     188.83        0.15     0.00   0.711
  SC_ISD-406               265.70       0.00       0.00      75.94     159.61      29.01     188.62        0.16     0.00   0.710
  SC_ISD-407               265.70       0.00       0.00      76.61     158.78      29.14     187.92        0.23     0.01   0.707
  SC_ISD-408               265.70       0.00       0.00      77.39     157.72      29.43     187.15        0.24     0.01   0.704
  SC_ISD-409               265.70       0.00       0.00      78.46     156.18      29.95     186.13        0.16     0.00   0.701
  SC_ISD-410               265.70       0.00       0.00      77.69     157.23      29.66     186.89        0.17     0.00   0.703
  SC_ISD-411               265.70       0.00       0.00      78.85     155.65      30.09     185.74        0.17     0.00   0.699
  SC_ISD-412               265.70       0.00       0.00      79.21     155.13      30.26     185.40        0.15     0.00   0.698
  SC_ISD-413               265.70       0.00       0.00      80.10     154.03      30.44     184.47        0.24     0.01   0.694
  SC_ISD-414               265.70       0.00       0.00      81.32     152.43      30.80     183.24        0.31     0.01   0.690
  SC_ISD-415               265.70       0.00       0.00      82.20     151.15      31.26     182.41        0.23     0.01   0.687
  SC_ISD-416               265.70       0.00       0.00      82.87     150.13      31.65     181.78        0.16     0.00   0.684
  SC_ISD-417               265.70       0.00       0.00      83.63     149.08      31.96     181.04        0.15     0.00   0.681
  SC_ISD-418               265.70       0.00       0.00      84.51     147.99      32.14     180.13        0.22     0.01   0.678
  SC_ISD-419               265.70       0.00       0.00      85.70     146.40      32.54     178.94        0.24     0.01   0.673
[...]
  C_792                       8.71      8.71     10.73      0.01         0.01
  C_793                       8.71      8.71      9.60      3.06         0.01
  C_794                       8.81      8.84      9.60      0.01         0.18
  C_795                       5.92      5.92      8.84      0.01         0.01
  C_796                       5.84      5.84      5.92      4.81         4.70
  C_797                       3.92      3.92      5.84      0.01         0.01
  C_798                       3.92      4.22      3.92     20.60         3.92
  C_799                       3.97      3.97      4.22      0.95         0.98
  C_800                       3.85      3.85      3.97      1.66         1.35
  C_801                       3.85      3.85      4.02      3.65         0.01
  C_802                       3.61      3.61      4.02      0.01         0.01
  C_803                       3.32      3.32      3.36      0.01         0.83
  C_804                       3.36      3.36      3.61      0.01         0.01
  C_805                       2.42      2.42      3.32      0.01         0.01
  C_806                       0.35      0.35      2.42      0.01         0.01
  C_807                       0.01      0.01      0.35      0.01         0.01
  C_829                       0.01      0.01      0.89      0.01         0.01
  C_830                       0.89      0.89      3.13      0.01         0.01
  C_831                       3.13      3.13      4.68      0.01         0.01
  C_832                       4.68      4.68      6.51      0.01         0.01
  C_833                       6.50      6.50     16.59      0.01         0.01
  C_834                      16.59     16.59     19.56      0.01         0.01
  C_835                      19.56     19.56     19.64      0.01         0.01
  C_836                      19.64     19.64     19.85      0.01         0.01
  C_837                      19.85     19.85     19.97      0.01         0.01
  C_838                      19.97     19.97     20.06      0.01         0.01
  C_839                      20.09     20.09     20.13      0.01         0.01
  C_840                      20.13     20.13     20.20      0.01         0.01
  C_841                      20.20     20.20     20.40      0.01         0.01
  C_842                      20.40     20.40     20.45      0.01         0.01
  C_843                      20.45     20.45     20.57      0.01         0.01
  C_844                      20.57     20.57     20.69      0.01         0.01
  C_845                      20.69     20.69     20.79      0.01         0.01
  C_846                      20.79     20.79     20.94      0.01         0.01
  C_847                      20.94     20.94     21.08      0.01         0.01
  C_848                      21.08     21.08     21.27      0.01         0.01
  C_849                      21.27     21.27     21.36      0.01         0.01
  C_850                      21.36     21.36     21.42      0.01         0.01
  C_851                      21.42     21.42     21.47      0.01         0.01
  C_852                      21.47     21.47     21.51      0.01         0.10
  C_853                      21.51     21.51     21.60      3.22         0.01
  C_854                      21.55     21.55     21.60      0.01         0.01
  C_855                      21.41     21.41     21.55      0.01         0.01
  C_856                      21.36     21.36     21.41      0.01         0.01
  C_857                      21.36     21.36     21.36     18.47         5.33
  C_858                      21.34     21.34     21.36      0.01         0.41
  C_859                      21.31     21.31     21.34      0.01         0.01
  C_860                      21.29     21.29     21.31      0.01         0.01
  C_861                      21.27     21.27     21.29      2.27         2.61
  C_862                      21.23     21.23     21.27      0.01         0.01
  C_863                      21.18     21.18     21.23      0.01         0.02
  C_864                      20.81     20.81     21.18      0.01         0.01
  C_865                      20.54     20.54     20.81      0.01         0.01
  C_866                      20.14     20.14     20.22      0.01         0.01
  C_867                      20.14     20.14     20.14      0.01         0.01
  C_868                      19.94     19.94     20.14      0.01         0.01
  C_869                      19.73     19.73     19.94      0.01         0.01
  C_870                      17.18     17.18     19.73      0.01         0.03
  C_871                       9.08      9.08     17.19      0.01         0.07
  C_872                       5.15      5.15      9.08      0.01         0.03
  C_873                       0.01      0.01      5.16      0.01         0.01
  C_877                       0.01      0.01      0.02      2.73         0.01
  C_878                       0.01      0.01      0.02      0.01         0.01
  C_884                       0.01      0.01      0.01      1.00         0.01
  C_891                       0.01      0.01      0.01      0.07         0.01
  C_894                       0.01      0.01      0.01      1.66         0.01
  C_901                       0.01      0.01      0.01      5.45         0.01
  C_907                       0.01      0.01      3.13      0.01         0.01
  C_908                       0.54      0.54      2.52      0.01         0.01
  C_909                       0.54      1.11      0.54     18.07         0.53
  C_910                       2.52      2.52      3.13      0.01         0.01
  C_911                       0.49      0.49      1.11      0.01         0.01
  C_912                       0.01      0.01      0.49      0.01         0.01
  C_921                       0.01      0.01      0.01     14.69         0.01
  C_964                       0.01      0.01      0.01      8.51         0.01
  C_988                       6.61      6.61     20.08      0.01         0.01
  C_989                      20.08     20.08     20.46      0.01         0.01
  C_990                      20.46     20.46     20.54      0.01         0.01
  C_991                      20.54     20.54     20.75      0.01         0.01
  C_992                      20.60     20.60     20.75      0.01         0.01
  C_993                       0.01      0.01     20.60      0.01         0.01
  C_994                       8.19      8.20      8.29      0.01         1.13
  C_995                       8.29      8.29      8.35      0.01         0.85
  C_996                       7.32      7.32      8.35      0.01         0.01
  C_997                       6.97      6.97      7.32      0.01         0.01
  C_998                       6.83      6.83      6.97      0.01         0.01
  C_999                       6.83      6.83      7.02      0.01         0.01
  C_1000                      7.02      7.02      7.27      0.01         0.01
  C_1001                      7.26      7.27      7.31      0.01         0.63
  C_1002                      6.72      6.72      6.93      0.01         0.01
  C_1003                      6.49      6.49      6.72      0.01         0.01
  C_1004                      6.37      6.37      6.49      0.01         0.01
  C_1005                      6.34      6.34      6.37      0.01         0.58
  C_1006                      5.89      5.89      6.34      0.01         0.01
  C_1007                      4.97      4.97      5.89      0.01         0.01
  C_1008                      4.69      4.69      4.97      0.01         0.01
  C_1009                      3.86      3.86      4.69      0.01         0.01
  C_1010                      2.89      2.89      3.86      0.01         0.01
  C_1011                      2.14      2.14      2.89      0.01         0.01
  C_1012                      0.01      0.01      2.14      0.01         0.01
  C_1066                      0.01      0.01      0.73      0.01         0.01
  C_1067                      0.73      0.73      1.16      0.01         0.01
  C_1068                      1.16      1.16      1.42      0.01         0.01
  C_1069                      1.42      1.42      1.56      0.01         0.01
  C_1070                      1.56      1.56      1.66      0.01         0.01
  C_1071                      1.66      1.66      1.78      0.01         0.01
  C_1072                      1.78      1.78      1.89      0.01         0.01
  C_1073                      1.89      1.89      2.03      0.01         0.01
  C_1074                      2.03      2.03      2.13      0.01         0.01
  C_1075                      2.13      2.13      2.24      0.01         0.01
  C_1076                      2.24      2.24      2.36      0.01         0.01
  C_1077                      2.36      2.36      2.50      0.01         0.01
  C_1078                      2.50      2.50      2.55      0.01         0.01
  C_1079                      2.55      2.55      2.70      0.01         0.01
  C_1080                      2.90      2.90      2.95      0.01         0.01
  C_1081                      2.95      2.95      2.96      0.01         0.68
  C_1082                      2.96      2.96      3.02      0.01         0.01
  C_1083                      3.02      3.02      3.06      0.01         0.01
  C_1084                      3.06      3.06      3.12      0.01         0.01
  C_1085                      3.12      3.12      3.17      0.01         0.01
  C_1086                      3.17      3.17      3.21      0.01         0.11
  C_1087                      3.21      3.21      3.25      0.01         0.01
  C_1088                      3.25      3.25      3.34      0.01         0.01
  C_1089                      3.34      3.34      3.42      0.01         0.01
  C_1090                      3.42      3.42      3.45      0.01         0.04
  C_1091                      3.45      3.45      3.52      0.01         0.01
  C_1092                      3.51      3.52      3.51      6.46         3.47
  C_1093                      3.51      3.51      3.54      1.67         1.62
  C_1094                      3.54      3.54      3.62      0.01         0.01
  C_1095                      3.62      3.62      3.68      0.01         0.01
  C_1096                      3.68      3.68      3.69      3.42         2.94
  C_1097                      3.69      3.69      3.75      0.01         0.01
  C_1098                      3.75      3.75      3.76      2.34         2.17
  C_1099                      3.76      3.76      3.84      0.01         0.01
  C_1100                      3.84      3.84      3.89      0.01         0.04
  C_1101                      3.89      3.89      4.01      0.01         0.01
  C_1102                      4.01      4.01      4.05      0.01         0.08
  C_1103                      4.05      4.05      4.10      1.79         1.76
  C_1104                      4.10      4.10      4.19      0.01         0.01
  C_1105                      4.19      4.19      4.25      0.01         0.04
  C_1106                      4.25      4.25      4.30      2.28         2.24
  C_1107                      4.30      4.30      4.40      0.01         0.01
  C_1108                      4.40      4.40      4.45      1.77         1.57
  C_1109                      4.45      4.45      4.53      0.01         0.01
  C_1110                      4.53      4.53      4.58      2.07         2.04
  C_1111                      4.58      4.58      4.72      0.01         0.22
  C_1112                      4.72      4.72      4.77      1.65         1.48
  C_1113                      4.76      4.81      4.76      6.95         4.75
  C_1114                      4.73      4.76      4.73      6.43         4.72
  C_1115                      4.73      4.73      5.08      0.01         0.01
  C_1116                      5.08      5.08      5.13      4.07         4.10
  C_1117                      5.09      5.13      5.09      6.53         5.09
  C_1118                      5.09      5.09      5.22      3.15         3.19
  C_1119                      5.22      5.22      5.26      4.00         4.00
  C_1120                      5.26      5.26      5.29      4.07         4.09
  C_1121                      5.29      5.29      5.32      4.39         4.34
  C_1122                      5.32      5.32      5.49      1.74         1.57
  C_1123                      5.49      5.49      5.52      4.14         4.21
  C_1124                      5.51      5.52      5.51      5.84         5.51
  C_1125                      5.51      5.51      5.56      5.20         5.16
  C_1126                      5.56      5.56      5.66      4.28         4.31
  C_1127                      5.66      5.66      5.69      5.12         4.86
  C_1128                      5.59      5.69      5.59     11.09         5.59
  C_1129                      5.59      5.59      5.69      4.37         4.36
  C_1130                      5.58      5.69      5.58     10.23         5.58
  C_1131                      5.44      5.58      5.44     20.97         5.44
  C_1132                      5.44      5.44      6.31      0.01         0.07
  C_1133                      6.69      6.69      6.98      5.00         4.77
  C_1134                      6.98      6.98      7.24      5.41         5.26
  C_1135                      6.31      6.31      6.69      4.84         4.75
  C_1136                      6.75      7.24      6.75     20.85         6.75
  C_1137                      6.75      6.75      7.18      5.31         5.22
  C_1138                      6.39      7.18      6.39     20.96         6.39
  C_1139                      4.56      4.56      6.39      2.74         0.01
  C_1140                      4.04      4.56      4.04     21.03         4.04
  C_1141                      3.60      4.04      3.60     20.92         3.60
  C_1142                      3.60      3.60      3.85      2.81         2.79
  C_1143                      2.37      2.37      3.85      7.16         0.01
  C_1144                      0.01      2.36      0.01     20.89         0.01
  C_1146                      0.01      0.01      0.01     20.38         0.01
  C_1147                      0.01      0.01      0.01     20.05         0.01
  C_1197                      0.01      0.01      0.01     10.14         0.01
  C_1249                      0.01      0.01      6.05      0.01         0.01
  C_1250                      5.71      5.71      6.05      0.01         0.01
  C_1251                      5.36      5.36      5.71      0.01         0.01
  C_1252                      5.36      5.36      5.47      0.01         0.01
  C_1253                      5.47      5.47      5.72      0.01         0.01
  C_1254                      4.60      4.60      5.72      0.01         0.01
  C_1255                      0.01      0.01      4.60      0.01         0.01
  C_1256                      0.01      0.01      2.60      0.01         0.01
  C_1257                      2.60      2.60     11.34      0.01         0.01
  C_1258                     11.34     11.34     15.66      0.01         0.01
  C_1259                     20.89     20.89     21.21      0.01         0.01
  C_1260                     15.55     15.91     15.71     12.85         8.13
  C_1261                     13.51     13.51     15.91      0.01         0.01
  C_1262                     11.03     11.03     13.51      0.01         0.01
  C_1263                      8.63      8.63     11.03      0.01         0.01
  C_1264                      8.02      8.02      8.63      0.01         0.01
  C_1265                      7.15      7.15      8.02      0.01         0.01
  C_1266                      0.01      0.01      7.15      0.01         0.01
  C_1280                      0.01      0.01      0.01      9.01         0.01
  C_1339                      0.01      0.01      5.07      0.01         0.01
  C_1340                      5.07      5.07     13.46      0.01         0.01
  C_1341                     13.46     13.46     14.01      0.01         0.03
  C_1342                     14.01     14.01     15.11      0.01         0.01
  C_1343                     15.11     15.11     15.18      0.01         0.19
  C_1344                     15.18     15.18     15.22      0.01         0.97
  C_1345                     15.22     15.22     15.53      0.01         0.01
  C_1346                     15.53     15.53     15.61      0.01         0.04
  C_1347                     15.61     15.61     15.61      5.18         7.55
  C_1348                     15.61     15.61     15.61      6.61         7.73
  C_1349                     15.61     15.61     16.22      0.01         0.01
  C_1350                     18.63     18.63     18.79      4.93         0.62
  C_1351                     18.78     18.79     18.79     12.88        11.31
  C_1352                     17.68     17.68     18.79      0.01         0.01
  C_1353                     16.94     16.94     17.68      0.01         0.01
  C_1354                     16.67     16.67     16.94      0.01         0.01
  C_1355                     16.23     16.23     16.67      0.01         0.01
  C_1356                     16.23     16.23     16.23      9.44         8.52
  C_1357                     15.89     15.89     16.23      0.01         0.06
  C_1358                     15.89     15.89     15.95      1.92         1.54
  C_1359                     15.95     15.95     16.02      3.24         0.17
  C_1360                     16.02     16.02     16.75      0.01         0.01
  C_1361                     16.75     16.75     21.21      0.01         0.01
  C_1362                     21.21     21.21     21.30      0.01         0.01
  C_1363                     21.30     21.30     21.31      0.01         3.78
  C_1364                     21.31     21.31     21.31     14.33        10.58
  C_1365                     21.31     21.31     21.31     11.73        10.53
  C_1366                     21.04     21.04     21.31      0.01         0.01
  C_1367                     18.45     18.45     21.04      0.01         0.01
  C_1368                     17.23     17.23     18.45      0.01         0.01
  C_1369                     16.26     16.26     17.23      0.01         0.01
  C_1370                     15.96     15.96     16.26      0.01         0.01
  C_1371                     15.96     15.96     16.06      0.01         0.08
  C_1372                     16.06     16.06     16.56      0.01         0.01
  C_1373                     16.56     16.56     17.76      0.01         0.01
  C_1374                     17.76     17.76     18.32      0.01         0.01
  C_1375                     18.32     18.32     18.84      0.01         0.01
  C_1376                     18.84     18.84     19.14      0.01         0.01
  C_1377                     19.14     19.14     19.31      0.01         0.01
  C_1378                     19.31     19.31     19.39      0.01         0.01
  C_1379                     19.30     19.30     19.65      0.01         0.01
  C_1380                     19.24     19.24     19.30      0.01         0.08
  C_1381                     19.24     19.24     19.48      0.01         0.01
  C_1382                     19.33     19.33     19.48      0.01         0.01
  C_1383                     19.12     19.12     19.33      0.01         0.01
  C_1384                     18.85     18.85     19.12      0.01         0.01
  C_1385                     18.64     18.64     18.85      0.01         0.01
  C_1386                     18.31     18.31     18.64      0.01         0.01
  C_1387                     16.83     16.83     18.31      0.01         0.01
  C_1388                      4.77      4.77     16.83      0.01         0.01
  C_1389                      0.01      0.01      4.77      0.01         0.01
  C_1403                      0.01      0.01      0.01      3.62         0.01
  C_1418                      0.01      0.01      0.01      1.39         0.01
  

  Analysis begun on:  Mon Oct 27 18:41:29 2025
  Analysis ended on:  Mon Oct 27 18:43:21 2025
  Total elapsed time: 00:01:52