
  EPA STORM WATER MANAGEMENT MODEL - VERSION 5.2 (Build 5.2.4)
  PYSWMM TOOLKIT API - VERSION v1.0 (2025-09-04)
  ------------------------------------------------------------

  Mandaue City Drainage Network Model 
  Generated from GIS data 
  2025-10-15 16:12 
  WARNING 04: minimum elevation drop used for Conduit C_182
  WARNING 04: minimum elevation drop used for Conduit C_225
  WARNING 04: minimum elevation drop used for Conduit C_231
  WARNING 04: minimum elevation drop used for Conduit C_243
  WARNING 04: minimum elevation drop used for Conduit C_244
  WARNING 04: minimum elevation drop used for Conduit C_329
  WARNING 04: minimum elevation drop used for Conduit C_332
  WARNING 04: minimum elevation drop used for Conduit C_342
  WARNING 04: minimum elevation drop used for Conduit C_378
  WARNING 04: minimum elevation drop used for Conduit C_387
  WARNING 04: minimum elevation drop used for Conduit C_395
  WARNING 04: minimum elevation drop used for Conduit C_407
  WARNING 04: minimum elevation drop used for Conduit C_430
  WARNING 04: minimum elevation drop used for Conduit C_437
  WARNING 04: minimum elevation drop used for Conduit C_442
  WARNING 04: minimum elevation drop used for Conduit C_447
  WARNING 04: minimum elevation drop used for Conduit C_462
  WARNING 04: minimum elevation drop used for Conduit C_478
  WARNING 04: minimum elevation drop used for Conduit C_479
  WARNING 04: minimum elevation drop used for Conduit C_483
  WARNING 04: minimum elevation drop used for Conduit C_492
  WARNING 04: minimum elevation drop used for Conduit C_585
  WARNING 04: minimum elevation drop used for Conduit C_587
  WARNING 04: minimum elevation drop used for Conduit C_591
  WARNING 04: minimum elevation drop used for Conduit C_597
  WARNING 04: minimum elevation drop used for Conduit C_600
  WARNING 04: minimum elevation drop used for Conduit C_603
  WARNING 04: minimum elevation drop used for Conduit C_642
  WARNING 04: minimum elevation drop used for Conduit C_649
  WARNING 04: minimum elevation drop used for Conduit C_671
  WARNING 04: minimum elevation drop used for Conduit C_677
  WARNING 04: minimum elevation drop used for Conduit C_737
  WARNING 04: minimum elevation drop used for Conduit C_752
  WARNING 04: minimum elevation drop used for Conduit C_783
  WARNING 04: minimum elevation drop used for Conduit C_786
  WARNING 04: minimum elevation drop used for Conduit C_798
  WARNING 04: minimum elevation drop used for Conduit C_857
  WARNING 04: minimum elevation drop used for Conduit C_909
  WARNING 04: minimum elevation drop used for Conduit C_921
  WARNING 04: minimum elevation drop used for Conduit C_953
  WARNING 04: minimum elevation drop used for Conduit C_964
  WARNING 04: minimum elevation drop used for Conduit C_1131
  WARNING 04: minimum elevation drop used for Conduit C_1136
  WARNING 04: minimum elevation drop used for Conduit C_1138
  WARNING 04: minimum elevation drop used for Conduit C_1140
  WARNING 04: minimum elevation drop used for Conduit C_1141
  WARNING 04: minimum elevation drop used for Conduit C_1144
  WARNING 04: minimum elevation drop used for Conduit C_1146
  WARNING 04: minimum elevation drop used for Conduit C_1147
  WARNING 04: minimum elevation drop used for Conduit C_1234
  WARNING 04: minimum elevation drop used for Conduit C_1260
  WARNING 04: minimum elevation drop used for Conduit C_1280
  WARNING 04: minimum elevation drop used for Conduit C_1347
  WARNING 04: minimum elevation drop used for Conduit C_1348
  WARNING 04: minimum elevation drop used for Conduit C_1351
  WARNING 04: minimum elevation drop used for Conduit C_1356
  WARNING 04: minimum elevation drop used for Conduit C_1364
  WARNING 04: minimum elevation drop used for Conduit C_1365
  WARNING 02: maximum depth increased for Node I-30
  WARNING 02: maximum depth increased for Node I-37
  WARNING 02: maximum depth increased for Node I-75
  WARNING 02: maximum depth increased for Node I-82
  
  ****************
  Analysis Options
  ****************
  Flow Units ............... CMS
  Process Models:
    Rainfall/Runoff ........ YES
    RDII ................... NO
    Snowmelt ............... NO
    Groundwater ............ NO
    Flow Routing ........... YES
    Ponding Allowed ........ YES
    Water Quality .......... NO
  Infiltration Method ...... HORTON
  Flow Routing Method ...... DYNWAVE
  Surcharge Method ......... EXTRAN
  Starting Date ............ 01/01/2024 00:00:00
  Ending Date .............. 01/01/2024 01:00:00
  Antecedent Dry Days ...... 0.0
  Report Time Step ......... 00:01:00
  Wet Time Step ............ 00:05:00
  Dry Time Step ............ 01:00:00
  Routing Time Step ........ 5.00 sec
  Variable Time Step ....... YES
  Maximum Trials ........... 8
  Number of Threads ........ 1
  Head Tolerance ........... 0.001500 m
  
  
  **************************        Volume         Depth
  Runoff Quantity Continuity     hectare-m            mm
  **************************     ---------       -------
  Total Precipitation ......        81.022       104.899
  Evaporation Loss .........         0.000         0.000
  Infiltration Loss ........        16.166        20.930
  Surface Runoff ...........        36.879        47.748
  Final Storage ............        29.610        38.337
  Continuity Error (%) .....        -2.017
  
  
  **************************        Volume        Volume
  Flow Routing Continuity        hectare-m      10^6 ltr
  **************************     ---------     ---------
  Dry Weather Inflow .......         0.000         0.000
  Wet Weather Inflow .......        35.361       353.609
  Groundwater Inflow .......         0.000         0.000
  RDII Inflow ..............         0.000         0.000
  External Inflow ..........         0.000         0.000
  External Outflow .........        15.043       150.435
  Flooding Loss ............        16.515       165.148
  Evaporation Loss .........         0.000         0.000
  Exfiltration Loss ........         0.000         0.000
  Initial Stored Volume ....         0.000         0.000
  Final Stored Volume ......         3.433        34.333
  Continuity Error (%) .....         1.045
  
  
  *************************
  Highest Continuity Errors
  *************************
  Node I-11 (35.82%)
  Node I-30 (32.78%)
  Node I-114 (31.08%)
  Node I-1 (18.04%)
  Node ISD-351 (16.54%)
  
  
  ***************************
  Time-Step Critical Elements
  ***************************
  Link C_1318 (35.76%)
  Link C_953 (5.14%)
  Link C_569 (4.35%)
  Link C_774 (3.25%)
  Link C_198 (2.83%)
  
  
  ********************************
  Highest Flow Instability Indexes
  ********************************
  Link C_633 (130)
  Link C_631 (130)
  Link C_691 (127)
  Link C_611 (127)
  Link C_610 (127)
  
  
  *********************************
  Most Frequent Nonconverging Nodes
  *********************************
  Node O-0 (92.20%)
  Node O-1 (92.20%)
  Node O-2 (92.20%)
  Node O-3 (92.20%)
  Node O-4 (92.20%)
  
  
  *************************
  Routing Time Step Summary
  *************************
  Minimum Time Step           :     0.13 sec
  Average Time Step           :     0.68 sec
  Maximum Time Step           :     5.00 sec
  % of Time in Steady State   :     0.00
  Average Iterations per Step :     7.62
  % of Steps Not Converging   :    92.20
  Time Step Frequencies       :
      5.000 -  3.155 sec      :     2.57 %
      3.155 -  1.991 sec      :     0.57 %
      1.991 -  1.256 sec      :     1.76 %
      1.256 -  0.792 sec      :     4.59 %
      0.792 -  0.500 sec      :    90.51 %
  
  
  ***************************
  Subcatchment Runoff Summary
  ***************************
  
  ------------------------------------------------------------------------------------------------------------------------------
                            Total      Total      Total      Total     Imperv       Perv      Total       Total     Peak  Runoff
                           Precip      Runon       Evap      Infil     Runoff     Runoff     Runoff      Runoff   Runoff   Coeff
  Subcatchment                 mm         mm         mm         mm         mm         mm         mm    10^6 ltr      CMS
  ------------------------------------------------------------------------------------------------------------------------------
  SC_I-0                   104.90       0.00       0.00      33.59       0.00      20.26      20.26        0.59     0.37   0.193
  SC_I-1                   104.90       0.00       0.00      33.59       0.00      15.65      15.65        0.67     0.43   0.149
  SC_I-2                   104.90       0.00       0.00      13.86      40.57      13.55      54.12        1.60     0.79   0.516
  SC_I-3                   104.90       0.00       0.00      33.59       0.00      12.96      12.96        0.43     0.28   0.124
  SC_I-4                   104.90       0.00       0.00      12.28      46.76      14.78      61.54        1.39     0.69   0.587
  SC_I-5                   104.90       0.00       0.00      21.83      31.08       7.12      38.20        3.78     1.89   0.364
  SC_I-6                   104.90       0.00       0.00      21.90      31.81       8.53      40.34        2.54     1.25   0.385
  SC_I-7                   104.90       0.00       0.00      21.83      33.70      13.17      46.87        0.94     0.45   0.447
  SC_I-8                   104.90       0.00       0.00      21.83      35.36      24.52      59.88        0.36     0.18   0.571
  SC_I-9                   104.90       0.00       0.00      21.83      32.11       8.78      40.89        2.18     1.07   0.390
  SC_I-10                  104.90       0.00       0.00      33.59       0.00      14.61      14.61        0.49     0.31   0.139
  SC_I-11                  104.90       0.00       0.00      33.59       0.00      11.22      11.22        0.68     0.45   0.107
  SC_I-12                  104.90       0.00       0.00      33.59       0.00      13.59      13.59        0.74     0.48   0.130
  SC_I-13                  104.90       0.00       0.00      21.83      31.37       7.53      38.90        2.96     1.47   0.371
  SC_I-14                  104.90       0.00       0.00      21.83      31.36       7.51      38.87        2.71     1.35   0.371
  SC_I-15                  104.90       0.00       0.00      21.83      31.66       7.98      39.64        2.52     1.25   0.378
  SC_I-16                  104.90       0.00       0.00      21.83      35.23      23.04      58.26        0.18     0.09   0.555
  SC_I-17                  104.90       0.00       0.00      33.59       0.00      16.24      16.24        0.20     0.13   0.155
  SC_I-20                  104.90       0.00       0.00      21.83      33.41      12.10      45.51        1.37     0.66   0.434
  SC_I-21                  104.90       0.00       0.00      33.59       0.00       9.33       9.33        0.56     0.37   0.089
  SC_I-22                  104.90       0.00       0.00      33.59       0.00      10.16      10.16        0.48     0.31   0.097
  SC_I-23                  104.90       0.00       0.00      21.83      32.61       9.84      42.44        1.84     0.90   0.405
  SC_I-24                  104.90       0.00       0.00      21.83      34.00      14.44      48.44        0.84     0.40   0.462
  SC_I-26                  104.90       0.00       0.00      21.83      32.41       9.38      41.78        2.54     1.24   0.398
  SC_I-27                  104.90       0.00       0.00      12.28      45.13      11.99      57.12        1.36     0.68   0.545
  SC_I-28                  104.90       0.00       0.00      21.83      35.05      21.29      56.33        0.19     0.09   0.537
  SC_I-29                  104.90       0.00       0.00      12.31      46.32      14.08      60.40        1.61     0.80   0.576
  SC_I-30                  104.90       0.00       0.00      12.28      47.80      17.19      64.99        0.68     0.34   0.620
  SC_I-31                  104.90       0.00       0.00      12.28      47.94      17.58      65.52        0.73     0.36   0.625
  SC_I-32                  104.90       0.00       0.00      12.28      50.37      27.00      77.37        0.13     0.07   0.738
  SC_I-33                  104.90       0.00       0.00      12.28      45.81      13.03      58.84        1.82     0.91   0.561
  SC_I-34                  104.90       0.00       0.00      25.93      22.10      10.64      32.74        2.67     1.25   0.312
  SC_I-35                  104.90       0.00       0.00      21.83      33.07      11.03      44.09        1.16     0.56   0.420
  SC_I-36                  104.90       0.00       0.00      13.56      40.69      11.78      52.46        3.50     1.75   0.500
  SC_I-37                  104.90       0.00       0.00      12.28      48.06      17.91      65.96        0.77     0.38   0.629
  SC_I-38                  104.90       0.00       0.00      21.83      32.81      10.33      43.14        1.91     0.93   0.411
  SC_I-39                  104.90       0.00       0.00      21.83      34.14      15.12      49.26        0.69     0.33   0.470
  SC_I-40                  104.90       0.00       0.00      12.41      44.18      11.24      55.41        2.19     1.10   0.528
  SC_I-41                  104.90       0.00       0.00      12.28      44.75      11.45      56.19        2.36     1.19   0.536
  SC_I-42                  104.90       0.00       0.00      12.28      48.77      20.12      68.89        0.42     0.21   0.657
  SC_I-43                  104.90       0.00       0.00      12.28      45.07      11.90      56.97        1.93     0.97   0.543
  SC_I-44                  104.90       0.00       0.00      21.83      33.38      12.01      45.39        1.45     0.70   0.433
  SC_I-45                  104.90       0.00       0.00      21.83      33.17      11.33      44.50        0.84     0.41   0.424
  SC_I-46                  104.90       0.00       0.00      12.28      50.95      30.37      81.32        0.10     0.06   0.775
  SC_I-47                  104.90       0.00       0.00      12.28      45.37      12.33      57.70        2.06     1.03   0.550
  SC_I-48                  104.90       0.00       0.00      12.28      49.08      21.22      70.30        0.54     0.27   0.670
  SC_I-49                  104.90       0.00       0.00      12.28      44.65      11.32      55.97        2.75     1.39   0.534
  SC_I-50                  104.90       0.00       0.00      21.83      31.18       7.26      38.44        2.82     1.41   0.366
  SC_I-51                  104.90       0.00       0.00      12.28      48.82      20.28      69.10        0.33     0.17   0.659
  SC_I-52                  104.90       0.00       0.00      12.28      44.65      11.32      55.97        2.18     1.10   0.534
  SC_I-53                  104.90       0.00       0.00      12.28      47.50      16.44      63.94        0.77     0.38   0.609
  SC_I-54                  104.90       0.00       0.00      21.83      31.25       7.35      38.59        3.68     1.84   0.368
  SC_I-55                  104.90       0.00       0.00      12.28      47.17      15.66      62.83        1.03     0.51   0.599
  SC_I-56                  104.90       0.00       0.00      12.16      45.18      11.48      56.66        2.00     1.01   0.540
  SC_I-57                  104.90       0.00       0.00      12.28      45.39      12.36      57.75        1.94     0.97   0.551
  SC_I-58                  104.90       0.00       0.00      12.38      46.18      14.33      60.51        1.32     0.66   0.577
  SC_I-59                  104.90       0.00       0.00      12.28      46.78      14.83      61.61        1.07     0.53   0.587
  SC_I-60                  104.90       0.00       0.00      28.92      13.88      11.62      25.50        0.75     0.34   0.243
  SC_I-61                  104.90       0.00       0.00      33.59       0.00      13.41      13.41        0.48     0.31   0.128
  SC_I-63                  104.90       0.00       0.00      12.28      46.10      13.52      59.62        1.50     0.75   0.568
  SC_I-64                  104.90       0.00       0.00      12.28      47.70      16.95      64.65        0.69     0.34   0.616
  SC_I-65                  104.90       0.00       0.00      33.59       0.00      12.29      12.29        0.39     0.26   0.117
  SC_I-66                  104.90       0.00       0.00      21.83      35.33      24.17      59.50        0.25     0.12   0.567
  SC_I-67                  104.90       0.00       0.00      12.28      45.84      13.08      58.93        1.62     0.81   0.562
  SC_I-68                  104.90       0.00       0.00      12.28      48.52      19.28      67.80        0.48     0.24   0.646
  SC_I-69                  104.90       0.00       0.00      10.56      49.27      10.24      59.51        2.47     1.26   0.567
  SC_I-71                  104.90       0.00       0.00      33.59       0.00      16.24      16.24        0.41     0.26   0.155
  SC_I-72                  104.90       0.00       0.00      12.28      46.88      15.03      61.92        0.80     0.40   0.590
  SC_I-73                  104.90       0.00       0.00      12.28      48.10      18.01      66.11        0.63     0.31   0.630
  SC_I-74                  104.90       0.00       0.00      12.28      47.39      16.17      63.56        0.73     0.36   0.606
  SC_I-75                  104.90       0.00       0.00       9.83      51.34       9.98      61.32        2.63     1.35   0.585
  SC_I-76                  104.90       0.00       0.00      12.38      46.95      16.00      62.95        0.65     0.32   0.600
  SC_I-77                  104.90       0.00       0.00      12.28      46.70      14.65      61.34        1.23     0.61   0.585
  SC_I-78                  104.90       0.00       0.00      33.59       0.00      11.54      11.54        0.25     0.16   0.110
  SC_I-79                  104.90       0.00       0.00      21.83      32.95      10.71      43.66        1.19     0.58   0.416
  SC_I-80                  104.90       0.00       0.00      21.83      34.38      16.41      50.79        0.56     0.27   0.484
  SC_I-81                  104.90       0.00       0.00      33.59       0.00      12.17      12.17        1.03     0.68   0.116
  SC_I-82                  104.90       0.00       0.00      11.55      45.05       9.27      54.32        3.09     1.57   0.518
  SC_I-83                  104.90       0.00       0.00      33.59       0.00      10.12      10.12        1.02     0.68   0.096
  SC_I-84                  104.90       0.00       0.00      21.83      33.38      12.01      45.39        0.68     0.33   0.433
  SC_I-85                  104.90       0.00       0.00      33.59       0.00      10.84      10.84        0.32     0.21   0.103
  SC_I-86                  104.90       0.00       0.00      21.83      32.73      10.14      42.88        1.01     0.49   0.409
  SC_I-87                  104.90       0.00       0.00      21.83      33.67      13.06      46.74        1.30     0.62   0.446
  SC_I-88                  104.90       0.00       0.00      21.83      31.78       8.18      39.95        2.24     1.11   0.381
  SC_I-89                  104.90       0.00       0.00      21.83      34.63      17.98      52.61        0.24     0.12   0.502
  SC_I-90                  104.90       0.00       0.00      21.83      32.89      10.54      43.43        1.20     0.59   0.414
  SC_I-91                  104.90       0.00       0.00      21.83      31.98       8.52      40.50        1.79     0.88   0.386
  SC_I-92                  104.90       0.00       0.00      21.83      31.69       8.02      39.71        2.45     1.21   0.379
  SC_I-93                  104.90       0.00       0.00      21.83      31.37       7.53      38.91        2.45     1.22   0.371
  SC_I-94                  104.90       0.00       0.00      21.83      32.26       9.08      41.34        1.67     0.82   0.394
  SC_I-95                  104.90       0.00       0.00      21.83      32.81      10.32      43.13        1.19     0.58   0.411
  SC_I-96                  104.90       0.00       0.00      21.83      31.34       7.48      38.82        2.94     1.46   0.370
  SC_I-97                  104.90       0.00       0.00      21.83      31.85       8.31      40.16        2.07     1.02   0.383
  SC_I-98                  104.90       0.00       0.00      32.45       3.53      26.21      29.75        0.09     0.05   0.284
  SC_I-99                  104.90       0.00       0.00      21.83      31.91       8.40      40.30        2.09     1.03   0.384
  SC_I-100                 104.90       0.00       0.00      20.66      38.59      22.06      60.65        0.58     0.28   0.578
  SC_I-101                 104.90       0.00       0.00      21.83      32.66       9.95      42.60        1.28     0.63   0.406
  SC_I-102                 104.90       0.00       0.00      22.27      30.95       8.60      39.55        2.64     1.30   0.377
  SC_I-103                 104.90       0.00       0.00      26.17      21.84      13.60      35.43        1.72     0.79   0.338
  SC_I-104                 104.90       0.00       0.00      21.83      33.48      12.33      45.81        0.92     0.45   0.437
  SC_I-105                 104.90       0.00       0.00      21.83      34.94      20.32      55.26        0.20     0.10   0.527
  SC_I-106                 104.90       0.00       0.00      21.83      33.09      11.09      44.18        2.12     1.03   0.421
  SC_I-107                 104.90       0.00       0.00      33.59       0.00       9.25       9.25        0.37     0.25   0.088
  SC_I-108                 104.90       0.00       0.00      21.83      34.32      16.11      50.44        0.77     0.37   0.481
  SC_I-109                 104.90       0.00       0.00      33.59       0.00      21.75      21.75        0.33     0.20   0.207
  SC_I-110                 104.90       0.00       0.00      21.83      31.39       7.56      38.95        2.66     1.32   0.371
  SC_I-111                 104.90       0.00       0.00      21.83      35.43      25.32      60.75        0.15     0.07   0.579
  SC_I-112                 104.90       0.00       0.00      21.83      35.04      21.19      56.23        0.42     0.20   0.536
  SC_I-113                 104.90       0.00       0.00      21.83      35.09      21.67      56.75        0.39     0.19   0.541
  SC_I-114                 104.90       0.00       0.00      33.59       0.00       9.12       9.12        0.47     0.31   0.087
  SC_I-115                 104.90       0.00       0.00      21.83      33.91      14.04      47.95        0.70     0.33   0.457
  SC_I-117                 104.90       0.00       0.00      11.87      48.88      15.98      64.86        1.64     0.81   0.618
  SC_I-118                 104.90       0.00       0.00      12.28      48.42      18.98      67.41        0.52     0.26   0.643
  SC_I-119                 104.90       0.00       0.00      21.83      32.91      10.59      43.50        2.83     1.37   0.415
  SC_I-120                 104.90       0.00       0.00      12.28      48.30      18.62      66.92        0.58     0.29   0.638
  SC_I-121                 104.90       0.00       0.00       9.88      60.13      23.77      83.90        0.08     0.04   0.800
  SC_I-122                 104.90       0.00       0.00      21.83      32.64       9.92      42.56        0.55     0.27   0.406
  SC_I-123                 104.90       0.00       0.00      33.59       0.00      26.42      26.42        0.21     0.13   0.252
  SC_I-124                 104.90       0.00       0.00      12.28      46.59      14.43      61.02        0.97     0.48   0.582
  SC_I-125                 104.90       0.00       0.00      12.28      46.52      14.30      60.82        1.19     0.59   0.580
  SC_I-126                 104.90       0.00       0.00      29.96      10.93      13.54      24.47        0.49     0.23   0.233
  SC_I-127                 104.90       0.00       0.00      21.83      32.36       9.28      41.64        2.02     0.99   0.397
  SC_I-128                 104.90       0.00       0.00      30.06      10.68      15.54      26.23        0.41     0.20   0.250
  SC_I-129                 104.90       0.00       0.00      33.59       0.00      29.48      29.48        0.17     0.10   0.281
  SC_I-130                 104.90       0.00       0.00       0.00      85.00       0.00      85.00        3.11     1.62   0.810
  SC_I-131                 104.90       0.00       0.00      14.64      37.37      12.50      49.87        1.46     0.72   0.475
  SC_I-132                 104.90       0.00       0.00      13.02      41.90      10.89      52.79        3.18     1.60   0.503
  SC_I-133                 104.90       0.00       0.00      21.83      34.61      17.90      52.51        0.45     0.21   0.501
  SC_I-134                 104.90       0.00       0.00      33.59       0.00      23.92      23.92        0.17     0.10   0.228
  SC_I-135                 104.90       0.00       0.00      21.83      35.61      27.64      63.24        0.08     0.04   0.603
  SC_I-136                 104.90       0.00       0.00      21.83      31.38       7.54      38.91        2.21     1.10   0.371
  SC_I-137                 104.90       0.00       0.00      33.59       0.00       9.93       9.93        0.38     0.25   0.095
  SC_I-138                 104.90       0.00       0.00      21.83      34.44      16.80      51.24        0.49     0.23   0.488
  SC_I-139                 104.90       0.00       0.00      21.83      34.01      14.51      48.52        0.56     0.27   0.463
  SC_I-140                 104.90       0.00       0.00      12.16      46.35      13.22      59.57        2.10     1.05   0.568
  SC_I-141                 104.90       0.00       0.00      33.59       0.00       8.42       8.42        0.46     0.31   0.080
  SC_I-142                 104.90       0.00       0.00      12.28      46.74      14.73      61.47        0.57     0.28   0.586
  SC_I-143                 104.90       0.00       0.00      12.28      49.06      21.14      70.20        0.45     0.22   0.669
  SC_ISD-1                 104.90       0.00       0.00      12.28      50.29      26.59      76.88        0.14     0.07   0.733
  SC_ISD-2                 104.90       0.00       0.00      12.28      50.07      25.46      75.53        0.16     0.08   0.720
  SC_ISD-3                 104.90       0.00       0.00      12.28      49.97      24.99      74.96        0.16     0.08   0.715
  SC_ISD-4                 104.90       0.00       0.00      12.28      50.10      25.61      75.71        0.13     0.07   0.722
  SC_ISD-5                 104.90       0.00       0.00      12.28      49.81      24.23      74.04        0.16     0.08   0.706
  SC_ISD-6                 104.90       0.00       0.00      12.28      49.80      24.20      73.99        0.16     0.08   0.705
  SC_ISD-7                 104.90       0.00       0.00      12.28      50.03      25.26      75.29        0.12     0.06   0.718
  SC_ISD-8                 104.90       0.00       0.00      12.28      49.64      23.50      73.15        0.16     0.08   0.697
  SC_ISD-9                 104.90       0.00       0.00      12.28      49.60      23.31      72.91        0.16     0.08   0.695
  SC_ISD-10                104.90       0.00       0.00      12.28      49.90      24.65      74.55        0.12     0.06   0.711
  SC_ISD-11                104.90       0.00       0.00      12.28      49.82      24.29      74.12        0.13     0.07   0.707
  SC_ISD-12                104.90       0.00       0.00      12.28      50.08      25.54      75.62        0.10     0.05   0.721
  SC_ISD-13                104.90       0.00       0.00      12.28      50.09      25.59      75.69        0.10     0.05   0.722
  SC_ISD-14                104.90       0.00       0.00      12.28      49.89      24.63      74.52        0.12     0.06   0.710
  SC_ISD-15                104.90       0.00       0.00      12.28      49.68      23.64      73.31        0.16     0.08   0.699
  SC_ISD-16                104.90       0.00       0.00      12.28      49.66      23.56      73.21        0.15     0.08   0.698
  SC_ISD-17                104.90       0.00       0.00      12.28      49.92      24.74      74.66        0.12     0.06   0.712
  SC_ISD-18                104.90       0.00       0.00      12.28      50.05      25.39      75.44        0.11     0.05   0.719
  SC_ISD-19                104.90       0.00       0.00      12.28      50.11      25.68      75.79        0.10     0.05   0.722
  SC_ISD-20                104.90       0.00       0.00      12.28      49.81      24.24      74.05        0.10     0.05   0.706
  SC_ISD-21                104.90       0.00       0.00      12.28      50.01      25.19      75.20        0.11     0.05   0.717
  SC_ISD-22                104.90       0.00       0.00      12.28      49.56      23.12      72.68        0.16     0.08   0.693
  SC_ISD-23                104.90       0.00       0.00      12.28      49.74      23.95      73.69        0.13     0.07   0.702
  SC_ISD-24                104.90       0.00       0.00      12.28      50.07      25.47      75.54        0.10     0.05   0.720
  SC_ISD-25                104.90       0.00       0.00      12.28      50.05      25.40      75.45        0.10     0.05   0.719
  SC_ISD-26                104.90       0.00       0.00      12.28      50.06      25.44      75.50        0.10     0.05   0.720
  SC_ISD-27                104.90       0.00       0.00      12.28      49.62      23.41      73.04        0.16     0.08   0.696
  SC_ISD-28                104.90       0.00       0.00      12.28      49.83      24.33      74.16        0.14     0.07   0.707
  SC_ISD-29                104.90       0.00       0.00      12.28      50.41      27.25      77.66        0.07     0.04   0.740
  SC_ISD-30                104.90       0.00       0.00      12.28      50.27      26.49      76.76        0.07     0.04   0.732
  SC_ISD-31                104.90       0.00       0.00      12.28      50.26      26.47      76.73        0.08     0.04   0.731
  SC_ISD-32                104.90       0.00       0.00      12.28      50.16      25.92      76.08        0.10     0.05   0.725
  SC_ISD-33                104.90       0.00       0.00      12.28      50.14      25.85      75.99        0.10     0.05   0.724
  SC_ISD-34                104.90       0.00       0.00      12.28      50.29      26.58      76.87        0.08     0.04   0.733
  SC_ISD-35                104.90       0.00       0.00      12.28      50.05      25.36      75.40        0.10     0.05   0.719
  SC_ISD-36                104.90       0.00       0.00      12.28      49.88      24.57      74.45        0.11     0.05   0.710
  SC_ISD-37                104.90       0.00       0.00      12.28      50.14      25.84      75.98        0.09     0.04   0.724
  SC_ISD-38                104.90       0.00       0.00      12.28      49.90      24.65      74.55        0.10     0.05   0.711
  SC_ISD-39                104.90       0.00       0.00      12.28      50.21      26.17      76.38        0.08     0.04   0.728
  SC_ISD-40                104.90       0.00       0.00      12.28      49.92      24.76      74.68        0.10     0.05   0.712
  SC_ISD-41                104.90       0.00       0.00      12.28      50.21      26.19      76.40        0.09     0.05   0.728
  SC_ISD-42                104.90       0.00       0.00      12.28      50.20      26.13      76.33        0.10     0.05   0.728
  SC_ISD-43                104.90       0.00       0.00      12.28      50.30      26.65      76.95        0.10     0.05   0.734
  SC_ISD-44                104.90       0.00       0.00      12.28      50.48      27.63      78.11        0.08     0.04   0.745
  SC_ISD-45                104.90       0.00       0.00      12.28      50.26      26.43      76.69        0.11     0.06   0.731
  SC_ISD-46                104.90       0.00       0.00      12.28      50.38      27.07      77.44        0.10     0.05   0.738
  SC_ISD-47                104.90       0.00       0.00      12.28      50.47      27.55      78.01        0.09     0.05   0.744
  SC_ISD-48                104.90       0.00       0.00      12.28      49.79      24.14      73.92        0.18     0.09   0.705
  SC_ISD-49                104.90       0.00       0.00      12.28      49.79      24.15      73.94        0.18     0.09   0.705
  SC_ISD-50                104.90       0.00       0.00      12.28      50.08      25.54      75.63        0.11     0.06   0.721
  SC_ISD-51                104.90       0.00       0.00      12.28      50.00      25.15      75.16        0.14     0.07   0.716
  SC_ISD-52                104.90       0.00       0.00      12.28      50.03      25.28      75.31        0.13     0.07   0.718
  SC_ISD-53                104.90       0.00       0.00      12.28      50.22      26.22      76.43        0.10     0.05   0.729
  SC_ISD-54                104.90       0.00       0.00      12.28      50.24      26.33      76.56        0.09     0.05   0.730
  SC_ISD-55                104.90       0.00       0.00      12.28      50.12      25.71      75.82        0.09     0.05   0.723
  SC_ISD-56                104.90       0.00       0.00      12.28      50.01      25.17      75.18        0.09     0.05   0.717
  SC_ISD-57                104.90       0.00       0.00      12.28      50.27      26.49      76.76        0.10     0.05   0.732
  SC_ISD-58                104.90       0.00       0.00      12.28      50.03      25.26      75.29        0.13     0.07   0.718
  SC_ISD-59                104.90       0.00       0.00      12.28      50.09      25.56      75.65        0.14     0.07   0.721
  SC_ISD-60                104.90       0.00       0.00      12.28      50.55      28.02      78.57        0.10     0.05   0.749
  SC_ISD-61                104.90       0.00       0.00      12.28      50.59      28.25      78.84        0.10     0.05   0.752
  SC_ISD-62                104.90       0.00       0.00      12.31      50.55      28.61      79.16        0.10     0.05   0.755
  SC_ISD-63                104.90       0.00       0.00      12.28      50.74      29.08      79.82        0.10     0.05   0.761
  SC_ISD-64                104.90       0.00       0.00      12.28      50.69      28.84      79.54        0.10     0.05   0.758
  SC_ISD-65                104.90       0.00       0.00      12.46      48.02      19.89      67.92        0.47     0.23   0.647
  SC_ISD-66                104.90       0.00       0.00      33.59       0.00      19.39      19.39        0.23     0.14   0.185
  SC_ISD-67                104.90       0.00       0.00      21.83      35.09      21.66      56.75        0.44     0.21   0.541
  SC_ISD-68                104.90       0.00       0.00      21.83      35.62      27.81      63.43        0.24     0.12   0.605
  SC_ISD-69                104.90       0.00       0.00      21.83      34.54      17.44      51.98        0.34     0.16   0.496
  SC_ISD-70                104.90       0.00       0.00      21.83      35.71      29.07      64.78        0.21     0.10   0.618
  SC_ISD-71                104.90       0.00       0.00      21.83      35.54      26.71      62.25        0.23     0.12   0.593
  SC_ISD-72                104.90       0.00       0.00      21.83      35.59      27.43      63.02        0.19     0.09   0.601
  SC_ISD-73                104.90       0.00       0.00      21.83      35.53      26.59      62.12        0.17     0.08   0.592
  SC_ISD-74                104.90       0.00       0.00      21.83      35.54      26.75      62.29        0.13     0.07   0.594
  SC_ISD-75                104.90       0.00       0.00      21.83      35.52      26.40      61.92        0.12     0.06   0.590
  SC_ISD-76                104.90       0.00       0.00      21.83      35.52      26.40      61.91        0.11     0.05   0.590
  SC_ISD-77                104.90       0.00       0.00      21.83      35.38      24.71      60.09        0.13     0.06   0.573
  SC_ISD-78                104.90       0.00       0.00      21.83      35.33      24.18      59.52        0.13     0.06   0.567
  SC_ISD-79                104.90       0.00       0.00      21.83      35.50      26.19      61.69        0.09     0.04   0.588
  SC_ISD-80                104.90       0.00       0.00      21.83      35.46      25.65      61.11        0.09     0.05   0.583
  SC_ISD-81                104.90       0.00       0.00      21.83      35.46      25.72      61.19        0.10     0.05   0.583
  SC_ISD-82                104.90       0.00       0.00      21.83      35.55      26.88      62.43        0.08     0.04   0.595
  SC_ISD-83                104.90       0.00       0.00      21.83      35.64      28.11      63.75        0.07     0.04   0.608
  SC_ISD-84                104.90       0.00       0.00      21.83      35.62      27.87      63.50        0.07     0.04   0.605
  SC_ISD-85                104.90       0.00       0.00      21.83      35.58      27.27      62.85        0.09     0.04   0.599
  SC_ISD-86                104.90       0.00       0.00      21.83      35.49      26.02      61.50        0.09     0.04   0.586
  SC_ISD-87                104.90       0.00       0.00      21.83      35.26      23.35      58.61        0.08     0.04   0.559
  SC_ISD-88                104.90       0.00       0.00      21.83      35.55      26.86      62.42        0.08     0.04   0.595
  SC_ISD-89                104.90       0.00       0.00      21.83      35.45      25.57      61.02        0.08     0.04   0.582
  SC_ISD-90                104.90       0.00       0.00      21.83      35.58      27.21      62.78        0.12     0.06   0.599
  SC_ISD-91                104.90       0.00       0.00      21.83      35.60      27.49      63.09        0.12     0.06   0.601
  SC_ISD-92                104.90       0.00       0.00      21.83      35.73      29.44      65.17        0.09     0.05   0.621
  SC_ISD-93                104.90       0.00       0.00      21.83      35.77      30.13      65.90        0.08     0.04   0.628
  SC_ISD-94                104.90       0.00       0.00      21.83      35.79      30.31      66.10        0.08     0.04   0.630
  SC_ISD-95                104.90       0.00       0.00      21.83      35.77      30.03      65.80        0.09     0.05   0.627
  SC_ISD-96                104.90       0.00       0.00      21.83      35.79      30.37      66.16        0.09     0.04   0.631
  SC_ISD-97                104.90       0.00       0.00      21.83      35.79      30.39      66.18        0.09     0.04   0.631
  SC_ISD-98                104.90       0.00       0.00      21.83      35.79      30.41      66.20        0.09     0.04   0.631
  SC_ISD-99                104.90       0.00       0.00      21.83      35.77      29.98      65.74        0.09     0.05   0.627
  SC_ISD-100               104.90       0.00       0.00      21.83      35.76      29.89      65.64        0.09     0.05   0.626
  SC_ISD-101               104.90       0.00       0.00      21.83      35.63      27.91      63.54        0.13     0.06   0.606
  SC_ISD-102               104.90       0.00       0.00      21.83      35.63      28.00      63.63        0.12     0.06   0.607
  SC_ISD-103               104.90       0.00       0.00      21.83      35.76      29.94      65.70        0.09     0.04   0.626
  SC_ISD-104               104.90       0.00       0.00      21.83      35.74      29.65      65.39        0.09     0.04   0.623
  SC_ISD-105               104.90       0.00       0.00      21.83      35.72      29.31      65.04        0.09     0.05   0.620
  SC_ISD-106               104.90       0.00       0.00      21.83      35.55      26.84      62.39        0.13     0.06   0.595
  SC_ISD-107               104.90       0.00       0.00      21.83      35.51      26.36      61.87        0.13     0.06   0.590
  SC_ISD-108               104.90       0.00       0.00      33.59       0.00      35.61      35.61        0.05     0.03   0.339
  SC_ISD-109               104.90       0.00       0.00      33.59       0.00      10.06      10.06        0.54     0.35   0.096
  SC_ISD-110               104.90       0.00       0.00      25.09      25.83      28.18      54.02        0.09     0.05   0.515
  SC_ISD-111               104.90       0.00       0.00      28.38      16.00      31.61      47.60        0.08     0.04   0.454
  SC_ISD-112               104.90       0.00       0.00      21.46      36.52      25.18      61.71        0.11     0.05   0.588
  SC_ISD-113               104.90       0.00       0.00      14.10      43.04      29.09      72.13        0.09     0.05   0.688
  SC_ISD-114               104.90       0.00       0.00      13.17      46.65      27.07      73.72        0.11     0.05   0.703
  SC_ISD-115               104.90       0.00       0.00      12.55      48.86      25.10      73.97        0.13     0.06   0.705
  SC_ISD-116               104.90       0.00       0.00      12.33      49.73      24.84      74.57        0.12     0.06   0.711
  SC_ISD-117               104.90       0.00       0.00      12.26      49.68      23.23      72.91        0.15     0.08   0.695
  SC_ISD-118               104.90       0.00       0.00      12.23      49.76      23.11      72.87        0.15     0.07   0.695
  SC_ISD-119               104.90       0.00       0.00      12.26      49.82      23.85      73.67        0.13     0.07   0.702
  SC_ISD-120               104.90       0.00       0.00      12.28      49.76      24.04      73.80        0.12     0.06   0.704
  SC_ISD-121               104.90       0.00       0.00      12.28      49.48      22.78      72.26        0.15     0.08   0.689
  SC_ISD-122               104.90       0.00       0.00      12.28      49.47      22.76      72.23        0.15     0.08   0.689
  SC_ISD-123               104.90       0.00       0.00      12.28      49.80      24.20      73.99        0.12     0.06   0.705
  SC_ISD-124               104.90       0.00       0.00      12.28      49.75      23.98      73.73        0.12     0.06   0.703
  SC_ISD-125               104.90       0.00       0.00      12.28      49.94      24.87      74.81        0.10     0.05   0.713
  SC_ISD-126               104.90       0.00       0.00      12.28      50.00      25.13      75.12        0.10     0.05   0.716
  SC_ISD-127               104.90       0.00       0.00      12.28      49.79      24.17      73.97        0.12     0.06   0.705
  SC_ISD-128               104.90       0.00       0.00      12.28      49.32      22.13      71.44        0.18     0.09   0.681
  SC_ISD-129               104.90       0.00       0.00      12.28      49.49      22.83      72.32        0.16     0.08   0.689
  SC_ISD-130               104.90       0.00       0.00      12.28      49.97      24.98      74.94        0.10     0.05   0.714
  SC_ISD-131               104.90       0.00       0.00      12.28      49.78      24.09      73.86        0.12     0.06   0.704
  SC_ISD-132               104.90       0.00       0.00      12.28      49.79      24.14      73.93        0.12     0.06   0.705
  SC_ISD-133               104.90       0.00       0.00      12.28      49.71      23.80      73.51        0.12     0.06   0.701
  SC_ISD-134               104.90       0.00       0.00      12.28      49.84      24.37      74.20        0.11     0.05   0.707
  SC_ISD-135               104.90       0.00       0.00      12.28      49.87      24.51      74.37        0.10     0.05   0.709
  SC_ISD-136               104.90       0.00       0.00      12.28      49.73      23.89      73.62        0.12     0.06   0.702
  SC_ISD-137               104.90       0.00       0.00      12.28      49.69      23.71      73.40        0.12     0.06   0.700
  SC_ISD-138               104.90       0.00       0.00      12.28      49.68      23.65      73.33        0.13     0.06   0.699
  SC_ISD-139               104.90       0.00       0.00      12.28      49.99      25.08      75.07        0.10     0.05   0.716
  SC_ISD-140               104.90       0.00       0.00      12.28      50.06      25.45      75.51        0.09     0.05   0.720
  SC_ISD-141               104.90       0.00       0.00      12.28      49.80      24.18      73.98        0.13     0.06   0.705
  SC_ISD-142               104.90       0.00       0.00      12.28      49.56      23.13      72.69        0.16     0.08   0.693
  SC_ISD-143               104.90       0.00       0.00      12.28      49.61      23.34      72.94        0.16     0.08   0.695
  SC_ISD-144               104.90       0.00       0.00      12.28      49.85      24.43      74.28        0.13     0.07   0.708
  SC_ISD-145               104.90       0.00       0.00      12.28      49.89      24.60      74.49        0.13     0.07   0.710
  SC_ISD-146               104.90       0.00       0.00      12.28      49.93      24.79      74.72        0.12     0.06   0.712
  SC_ISD-147               104.90       0.00       0.00      12.28      49.68      23.67      73.35        0.16     0.08   0.699
  SC_ISD-148               104.90       0.00       0.00      12.28      49.68      23.67      73.35        0.17     0.08   0.699
  SC_ISD-149               104.90       0.00       0.00      12.28      50.03      25.28      75.31        0.12     0.06   0.718
  SC_ISD-150               104.90       0.00       0.00      12.28      50.01      25.20      75.21        0.12     0.06   0.717
  SC_ISD-151               104.90       0.00       0.00      12.28      48.88      20.50      69.39        0.30     0.15   0.661
  SC_ISD-152               104.90       0.00       0.00      21.83      34.06      14.75      48.81        0.39     0.19   0.465
  SC_ISD-153               104.90       0.00       0.00      21.83      34.67      18.30      52.98        0.29     0.14   0.505
  SC_ISD-154               104.90       0.00       0.00      21.83      35.32      24.04      59.36        0.14     0.07   0.566
  SC_ISD-155               104.90       0.00       0.00       0.00      95.79       0.00      95.79        0.24     0.13   0.913
  SC_ISD-156               104.90       0.00       0.00       0.53      93.33       2.82      96.15        0.21     0.11   0.917
  SC_ISD-157               104.90       0.00       0.00       2.09      84.18      10.23      94.42        0.20     0.11   0.900
  SC_ISD-158               104.90       0.00       0.00       3.58      75.12      16.04      91.16        0.23     0.12   0.869
  SC_ISD-159               104.90       0.00       0.00       2.60      81.31      12.45      93.76        0.21     0.11   0.894
  SC_ISD-160               104.90       0.00       0.00      10.42      57.45      23.06      80.51        0.13     0.07   0.768
  SC_ISD-161               104.90       0.00       0.00      11.13      54.78      24.54      79.32        0.11     0.06   0.756
  SC_ISD-162               104.90       0.00       0.00      11.62      52.43      23.59      76.02        0.15     0.08   0.725
  SC_ISD-163               104.90       0.00       0.00      11.96      50.93      23.34      74.27        0.16     0.08   0.708
  SC_ISD-164               104.90       0.00       0.00      12.21      50.47      25.93      76.40        0.10     0.05   0.728
  SC_ISD-165               104.90       0.00       0.00      12.16      50.57      25.41      75.98        0.11     0.06   0.724
  SC_ISD-166               104.90       0.00       0.00      12.26      50.02      24.74      74.76        0.13     0.06   0.713
  SC_ISD-167               104.90       0.00       0.00      12.28      49.96      24.94      74.90        0.12     0.06   0.714
  SC_ISD-168               104.90       0.00       0.00      12.28      48.63      19.64      68.26        0.30     0.15   0.651
  SC_ISD-169               104.90       0.00       0.00      12.28      48.31      18.63      66.93        0.34     0.17   0.638
  SC_ISD-170               104.90       0.00       0.00      12.28      49.48      22.79      72.27        0.19     0.09   0.689
  SC_ISD-171               104.90       0.00       0.00      12.28      49.92      24.74      74.65        0.16     0.08   0.712
  SC_ISD-172               104.90       0.00       0.00      12.28      49.94      24.85      74.78        0.13     0.07   0.713
  SC_ISD-173               104.90       0.00       0.00      12.28      49.96      24.96      74.92        0.12     0.06   0.714
  SC_ISD-174               104.90       0.00       0.00      12.28      50.00      25.15      75.15        0.12     0.06   0.716
  SC_ISD-175               104.90       0.00       0.00      12.28      49.38      22.39      71.77        0.21     0.11   0.684
  SC_ISD-176               104.90       0.00       0.00      12.28      49.36      22.32      71.69        0.21     0.11   0.683
  SC_ISD-177               104.90       0.00       0.00      12.28      49.89      24.64      74.53        0.13     0.07   0.711
  SC_ISD-178               104.90       0.00       0.00      12.28      49.99      25.09      75.08        0.14     0.07   0.716
  SC_ISD-179               104.90       0.00       0.00      12.28      49.95      24.91      74.86        0.13     0.06   0.714
  SC_ISD-180               104.90       0.00       0.00      12.28      50.04      25.34      75.39        0.12     0.06   0.719
  SC_ISD-181               104.90       0.00       0.00      12.28      49.80      24.20      74.00        0.16     0.08   0.705
  SC_ISD-182               104.90       0.00       0.00      12.28      49.84      24.37      74.21        0.16     0.08   0.707
  SC_ISD-183               104.90       0.00       0.00      12.28      50.10      25.63      75.73        0.12     0.06   0.722
  SC_ISD-184               104.90       0.00       0.00      12.28      49.64      23.48      73.13        0.18     0.09   0.697
  SC_ISD-185               104.90       0.00       0.00      12.28      49.63      23.46      73.09        0.18     0.09   0.697
  SC_ISD-186               104.90       0.00       0.00      12.28      50.06      25.44      75.51        0.13     0.07   0.720
  SC_ISD-187               104.90       0.00       0.00      12.28      50.03      25.27      75.30        0.14     0.07   0.718
  SC_ISD-188               104.90       0.00       0.00      12.28      49.80      24.18      73.98        0.19     0.10   0.705
  SC_ISD-189               104.90       0.00       0.00      12.28      49.91      24.71      74.62        0.20     0.10   0.711
  SC_ISD-190               104.90       0.00       0.00      12.28      50.32      26.78      77.10        0.15     0.08   0.735
  SC_ISD-191               104.90       0.00       0.00      12.28      50.25      26.39      76.64        0.16     0.08   0.731
  SC_ISD-192               104.90       0.00       0.00      12.28      49.98      25.04      75.03        0.21     0.11   0.715
  SC_ISD-193               104.90       0.00       0.00      12.28      49.71      23.79      73.50        0.25     0.13   0.701
  SC_ISD-194               104.90       0.00       0.00      12.28      50.08      25.54      75.63        0.18     0.09   0.721
  SC_ISD-195               104.90       0.00       0.00      12.28      49.93      24.81      74.74        0.20     0.10   0.712
  SC_ISD-196               104.90       0.00       0.00      12.28      49.59      23.27      72.86        0.24     0.12   0.695
  SC_ISD-197               104.90       0.00       0.00      12.28      49.77      24.05      73.82        0.18     0.09   0.704
  SC_ISD-198               104.90       0.00       0.00      12.28      49.65      23.52      73.17        0.16     0.08   0.697
  SC_ISD-199               104.90       0.00       0.00      12.28      48.54      19.35      67.89        0.28     0.14   0.647
  SC_ISD-200               104.90       0.00       0.00      12.28      48.65      19.69      68.34        0.26     0.13   0.651
  SC_ISD-201               104.90       0.00       0.00      12.28      49.87      24.54      74.41        0.11     0.06   0.709
  SC_ISD-202               104.90       0.00       0.00      12.28      49.98      25.02      75.00        0.10     0.05   0.715
  SC_ISD-203               104.90       0.00       0.00      12.28      49.89      24.62      74.52        0.12     0.06   0.710
  SC_ISD-204               104.90       0.00       0.00      12.28      49.79      24.14      73.93        0.13     0.07   0.705
  SC_ISD-205               104.90       0.00       0.00      12.28      49.80      24.22      74.02        0.13     0.06   0.706
  SC_ISD-206               104.90       0.00       0.00      12.28      50.06      25.45      75.52        0.10     0.05   0.720
  SC_ISD-207               104.90       0.00       0.00      12.28      50.11      25.68      75.78        0.09     0.05   0.722
  SC_ISD-208               104.90       0.00       0.00      12.28      49.94      24.86      74.80        0.11     0.05   0.713
  SC_ISD-209               104.90       0.00       0.00      12.28      49.74      23.93      73.67        0.13     0.07   0.702
  SC_ISD-210               104.90       0.00       0.00      12.28      49.82      24.29      74.11        0.12     0.06   0.706
  SC_ISD-211               104.90       0.00       0.00      12.28      49.99      25.08      75.07        0.10     0.05   0.716
  SC_ISD-212               104.90       0.00       0.00      12.28      49.74      23.92      73.66        0.12     0.06   0.702
  SC_ISD-213               104.90       0.00       0.00      12.28      49.39      22.43      71.82        0.15     0.07   0.685
  SC_ISD-215               104.90       0.00       0.00      12.28      50.16      25.94      76.10        0.21     0.11   0.725
  SC_ISD-216               104.90       0.00       0.00      12.28      50.33      26.82      77.16        0.20     0.10   0.736
  SC_ISD-217               104.90       0.00       0.00      12.28      50.62      28.39      79.01        0.13     0.07   0.753
  SC_ISD-218               104.90       0.00       0.00      12.28      50.34      26.86      77.19        0.16     0.08   0.736
  SC_ISD-219               104.90       0.00       0.00      12.28      49.76      24.02      73.78        0.22     0.11   0.703
  SC_ISD-220               104.90       0.00       0.00      12.28      49.60      23.31      72.91        0.22     0.11   0.695
  SC_ISD-221               104.90       0.00       0.00      12.28      49.71      23.79      73.50        0.19     0.10   0.701
  SC_ISD-222               104.90       0.00       0.00      12.28      49.92      24.77      74.69        0.14     0.07   0.712
  SC_ISD-223               104.90       0.00       0.00      12.28      50.29      26.59      76.88        0.10     0.05   0.733
  SC_ISD-224               104.90       0.00       0.00      12.28      50.42      27.30      77.72        0.09     0.05   0.741
  SC_ISD-225               104.90       0.00       0.00      12.28      50.31      26.70      77.01        0.10     0.05   0.734
  SC_ISD-226               104.90       0.00       0.00      12.28      49.76      24.03      73.79        0.18     0.09   0.703
  SC_ISD-227               104.90       0.00       0.00      12.28      49.59      23.27      72.86        0.20     0.10   0.695
  SC_ISD-228               104.90       0.00       0.00      12.28      50.04      25.32      75.35        0.12     0.06   0.718
  SC_ISD-229               104.90       0.00       0.00      12.28      50.36      26.99      77.35        0.09     0.05   0.737
  SC_ISD-230               104.90       0.00       0.00      12.28      49.94      24.87      74.81        0.14     0.07   0.713
  SC_ISD-231               104.90       0.00       0.00      12.28      49.93      24.81      74.74        0.14     0.07   0.713
  SC_ISD-232               104.90       0.00       0.00      12.28      49.87      24.51      74.38        0.15     0.08   0.709
  SC_ISD-233               104.90       0.00       0.00      12.28      50.20      26.15      76.35        0.10     0.05   0.728
  SC_ISD-234               104.90       0.00       0.00      12.28      49.63      23.45      73.09        0.18     0.09   0.697
  SC_ISD-235               104.90       0.00       0.00      12.28      49.56      23.14      72.70        0.19     0.09   0.693
  SC_ISD-236               104.90       0.00       0.00      12.28      49.74      23.95      73.69        0.15     0.08   0.703
  SC_ISD-237               104.90       0.00       0.00      12.28      49.64      23.48      73.12        0.15     0.08   0.697
  SC_ISD-238               104.90       0.00       0.00      12.28      50.19      26.06      76.24        0.10     0.05   0.727
  SC_ISD-239               104.90       0.00       0.00      12.28      49.22      21.74      70.96        0.19     0.10   0.676
  SC_ISD-240               104.90       0.00       0.00      12.28      49.32      22.14      71.46        0.18     0.09   0.681
  SC_ISD-241               104.90       0.00       0.00      12.28      49.54      23.03      72.57        0.18     0.09   0.692
  SC_ISD-242               104.90       0.00       0.00      12.28      49.61      23.37      72.98        0.18     0.09   0.696
  SC_ISD-243               104.90       0.00       0.00      12.28      49.65      23.54      73.19        0.16     0.08   0.698
  SC_ISD-244               104.90       0.00       0.00      12.28      49.77      24.06      73.83        0.13     0.06   0.704
  SC_ISD-245               104.90       0.00       0.00      12.28      49.27      21.95      71.22        0.19     0.10   0.679
  SC_ISD-246               104.90       0.00       0.00      12.28      49.77      24.06      73.83        0.16     0.08   0.704
  SC_ISD-247               104.90       0.00       0.00      12.28      49.20      21.68      70.88        0.29     0.14   0.676
  SC_ISD-248               104.90       0.00       0.00      12.28      50.10      25.62      75.72        0.14     0.07   0.722
  SC_ISD-249               104.90       0.00       0.00      12.28      49.59      23.26      72.85        0.23     0.12   0.694
  SC_ISD-250               104.90       0.00       0.00      12.28      50.27      26.51      76.78        0.11     0.06   0.732
  SC_ISD-251               104.90       0.00       0.00      12.28      50.02      25.25      75.27        0.15     0.08   0.718
  SC_ISD-252               104.90       0.00       0.00      12.28      49.49      22.82      72.31        0.22     0.11   0.689
  SC_ISD-253               104.90       0.00       0.00      12.19      48.69      18.62      67.30        0.38     0.19   0.642
  SC_ISD-254               104.90       0.00       0.00      11.84      51.01      21.71      72.72        0.19     0.10   0.693
  SC_ISD-255               104.90       0.00       0.00      12.23      48.81      19.60      68.40        0.31     0.15   0.652
  SC_ISD-256               104.90       0.00       0.00      12.85      46.34      19.38      65.72        0.35     0.17   0.626
  SC_ISD-257               104.90       0.00       0.00      26.43      21.42      18.34      39.76        0.26     0.12   0.379
  SC_ISD-258               104.90       0.00       0.00      21.83      34.61      17.84      52.45        0.33     0.16   0.500
  SC_ISD-259               104.90       0.00       0.00      21.83      34.74      18.77      53.51        0.32     0.15   0.510
  SC_ISD-260               104.90       0.00       0.00      21.83      34.86      19.73      54.60        0.29     0.14   0.520
  SC_ISD-261               104.90       0.00       0.00      21.83      35.25      23.24      58.48        0.16     0.08   0.558
  SC_ISD-262               104.90       0.00       0.00      21.83      35.56      26.98      62.54        0.09     0.04   0.596
  SC_ISD-263               104.90       0.00       0.00      21.83      35.47      25.77      61.23        0.10     0.05   0.584
  SC_ISD-264               104.90       0.00       0.00      21.83      35.54      26.75      62.29        0.08     0.04   0.594
  SC_ISD-265               104.90       0.00       0.00      21.83      34.63      17.98      52.61        0.32     0.15   0.502
  SC_ISD-266               104.90       0.00       0.00      21.83      34.55      17.49      52.04        0.31     0.15   0.496
  SC_ISD-267               104.90       0.00       0.00      21.83      35.07      21.54      56.62        0.17     0.08   0.540
  SC_ISD-268               104.90       0.00       0.00      21.83      34.34      16.18      50.52        0.42     0.20   0.482
  SC_ISD-269               104.90       0.00       0.00      21.83      34.24      15.63      49.86        0.49     0.24   0.475
  SC_ISD-270               104.90       0.00       0.00      21.83      35.03      21.18      56.21        0.19     0.09   0.536
  SC_ISD-271               104.90       0.00       0.00      21.83      34.87      19.78      54.65        0.22     0.11   0.521
  SC_ISD-272               104.90       0.00       0.00      21.83      34.82      19.42      54.25        0.18     0.09   0.517
  SC_ISD-273               104.90       0.00       0.00      12.46      49.78      27.82      77.60        0.09     0.05   0.740
  SC_ISD-274               104.90       0.00       0.00      12.82      48.45      29.33      77.78        0.07     0.04   0.742
  SC_ISD-275               104.90       0.00       0.00      14.05      43.27      29.26      72.53        0.09     0.05   0.691
  SC_ISD-276               104.90       0.00       0.00      22.27      34.27      27.36      61.63        0.08     0.04   0.588
  SC_ISD-277               104.90       0.00       0.00      26.54      21.53      29.83      51.36        0.07     0.03   0.490
  SC_ISD-278               104.90       0.00       0.00      32.31       3.96      32.52      36.48        0.05     0.03   0.348
  SC_ISD-279               104.90       0.00       0.00      33.59       0.00      32.78      32.78        0.05     0.03   0.312
  SC_ISD-280               104.90       0.00       0.00      33.59       0.00      32.89      32.89        0.04     0.03   0.314
  SC_ISD-281               104.90       0.00       0.00      21.83      35.50      26.17      61.67        0.08     0.04   0.588
  SC_ISD-282               104.90       0.00       0.00      21.83      35.45      25.56      61.01        0.08     0.04   0.582
  SC_ISD-283               104.90       0.00       0.00      21.83      35.56      26.93      62.49        0.07     0.03   0.596
  SC_ISD-285               104.90       0.00       0.00      21.83      35.25      23.28      58.53        0.13     0.06   0.558
  SC_ISD-286               104.90       0.00       0.00      21.83      35.24      23.21      58.45        0.14     0.07   0.557
  SC_ISD-287               104.90       0.00       0.00      21.83      35.24      23.14      58.38        0.13     0.06   0.556
  SC_ISD-288               104.90       0.00       0.00      21.83      35.50      26.25      61.75        0.08     0.04   0.589
  SC_ISD-289               104.90       0.00       0.00      21.83      35.55      26.91      62.46        0.07     0.04   0.595
  SC_ISD-290               104.90       0.00       0.00      21.83      35.53      26.61      62.14        0.08     0.04   0.592
  SC_ISD-291               104.90       0.00       0.00      21.83      35.48      25.89      61.36        0.09     0.04   0.585
  SC_ISD-292               104.90       0.00       0.00      21.83      35.52      26.42      61.94        0.08     0.04   0.590
  SC_ISD-293               104.90       0.00       0.00      21.83      35.52      26.48      62.00        0.08     0.04   0.591
  SC_ISD-294               104.90       0.00       0.00      21.83      35.30      23.77      59.06        0.11     0.05   0.563
  SC_ISD-295               104.90       0.00       0.00      21.83      35.18      22.52      57.69        0.13     0.06   0.550
  SC_ISD-296               104.90       0.00       0.00      21.83      35.22      22.99      58.21        0.12     0.06   0.555
  SC_ISD-297               104.90       0.00       0.00      21.83      35.23      23.12      58.36        0.13     0.06   0.556
  SC_ISD-298               104.90       0.00       0.00      21.83      35.44      25.46      60.90        0.09     0.05   0.581
  SC_ISD-299               104.90       0.00       0.00      21.83      35.51      26.35      61.86        0.08     0.04   0.590
  SC_ISD-300               104.90       0.00       0.00      21.83      35.54      26.75      62.30        0.08     0.04   0.594
  SC_ISD-301               104.90       0.00       0.00      21.83      35.54      26.76      62.30        0.08     0.04   0.594
  SC_ISD-302               104.90       0.00       0.00      21.83      35.45      25.51      60.96        0.10     0.05   0.581
  SC_ISD-303               104.90       0.00       0.00      21.83      35.57      27.18      62.76        0.08     0.04   0.598
  SC_ISD-304               104.90       0.00       0.00      21.83      35.50      26.16      61.66        0.11     0.05   0.588
  SC_ISD-305               104.90       0.00       0.00      21.83      35.63      28.00      63.63        0.08     0.04   0.607
  SC_ISD-306               104.90       0.00       0.00      21.83      35.58      27.27      62.85        0.09     0.05   0.599
  SC_ISD-307               104.90       0.00       0.00      21.83      35.81      30.70      66.51        0.06     0.03   0.634
  SC_ISD-308               104.90       0.00       0.00      21.83      35.52      26.39      61.91        0.10     0.05   0.590
  SC_ISD-309               104.90       0.00       0.00      21.83      35.41      25.12      60.53        0.13     0.06   0.577
  SC_ISD-310               104.90       0.00       0.00      21.83      35.50      26.22      61.72        0.10     0.05   0.588
  SC_ISD-311               104.90       0.00       0.00      21.83      35.47      25.83      61.30        0.11     0.05   0.584
  SC_ISD-312               104.90       0.00       0.00      21.83      35.47      25.77      61.24        0.11     0.05   0.584
  SC_ISD-313               104.90       0.00       0.00      21.83      35.48      25.98      61.46        0.10     0.05   0.586
  SC_ISD-314               104.90       0.00       0.00      21.83      35.49      26.07      61.57        0.10     0.05   0.587
  SC_ISD-315               104.90       0.00       0.00      21.83      35.50      26.17      61.67        0.10     0.05   0.588
  SC_ISD-316               104.90       0.00       0.00      21.83      35.47      25.78      61.24        0.10     0.05   0.584
  SC_ISD-317               104.90       0.00       0.00      21.83      35.42      25.20      60.62        0.11     0.06   0.578
  SC_ISD-318               104.90       0.00       0.00      21.83      35.30      23.86      59.17        0.14     0.07   0.564
  SC_ISD-319               104.90       0.00       0.00      21.83      35.36      24.44      59.79        0.12     0.06   0.570
  SC_ISD-320               104.90       0.00       0.00      21.83      35.27      23.54      58.81        0.14     0.07   0.561
  SC_ISD-321               104.90       0.00       0.00      21.83      35.31      23.94      59.25        0.13     0.06   0.565
  SC_ISD-322               104.90       0.00       0.00      21.83      35.52      26.46      61.98        0.08     0.04   0.591
  SC_ISD-323               104.90       0.00       0.00      21.83      35.43      25.31      60.74        0.10     0.05   0.579
  SC_ISD-324               104.90       0.00       0.00      21.83      35.42      25.19      60.60        0.10     0.05   0.578
  SC_ISD-325               104.90       0.00       0.00      21.83      35.52      26.45      61.97        0.09     0.04   0.591
  SC_ISD-326               104.90       0.00       0.00      21.83      35.55      26.87      62.43        0.08     0.04   0.595
  SC_ISD-327               104.90       0.00       0.00      21.83      35.55      26.84      62.39        0.08     0.04   0.595
  SC_ISD-328               104.90       0.00       0.00      21.83      35.55      26.82      62.37        0.08     0.04   0.595
  SC_ISD-329               104.90       0.00       0.00      21.83      35.46      25.72      61.18        0.10     0.05   0.583
  SC_ISD-330               104.90       0.00       0.00      21.83      35.54      26.72      62.26        0.09     0.04   0.594
  SC_ISD-331               104.90       0.00       0.00      21.83      35.59      27.45      63.04        0.08     0.04   0.601
  SC_ISD-332               104.90       0.00       0.00      21.83      35.60      27.59      63.19        0.08     0.04   0.602
  SC_ISD-333               104.90       0.00       0.00      21.83      35.58      27.31      62.89        0.09     0.04   0.600
  SC_ISD-334               104.90       0.00       0.00      21.83      35.54      26.72      62.26        0.10     0.05   0.594
  SC_ISD-335               104.90       0.00       0.00      21.83      35.59      27.39      62.99        0.09     0.04   0.600
  SC_ISD-336               104.90       0.00       0.00      21.83      35.57      27.15      62.72        0.08     0.04   0.598
  SC_ISD-337               104.90       0.00       0.00      21.83      35.47      25.80      61.27        0.10     0.05   0.584
  SC_ISD-338               104.90       0.00       0.00      21.83      35.49      26.13      61.62        0.09     0.04   0.587
  SC_ISD-339               104.90       0.00       0.00      21.83      35.53      26.58      62.11        0.08     0.04   0.592
  SC_ISD-340               104.90       0.00       0.00      21.83      35.49      26.12      61.62        0.08     0.04   0.587
  SC_ISD-341               104.90       0.00       0.00      21.83      35.46      25.69      61.15        0.09     0.04   0.583
  SC_ISD-342               104.90       0.00       0.00      21.83      35.50      26.20      61.70        0.09     0.04   0.588
  SC_ISD-343               104.90       0.00       0.00      21.83      35.47      25.86      61.33        0.10     0.05   0.585
  SC_ISD-344               104.90       0.00       0.00      21.83      35.53      26.59      62.13        0.09     0.05   0.592
  SC_ISD-345               104.90       0.00       0.00      21.83      35.35      24.39      59.75        0.13     0.06   0.570
  SC_ISD-346               104.90       0.00       0.00      21.83      35.30      23.87      59.17        0.13     0.06   0.564
  SC_ISD-347               104.90       0.00       0.00      21.83      35.36      24.48      59.83        0.12     0.06   0.570
  SC_ISD-348               104.90       0.00       0.00      21.83      35.30      23.80      59.09        0.13     0.06   0.563
  SC_ISD-349               104.90       0.00       0.00      21.83      35.48      25.88      61.36        0.09     0.05   0.585
  SC_ISD-350               104.90       0.00       0.00      21.83      35.94      32.96      68.90        0.03     0.02   0.657
  SC_ISD-351               104.90       0.00       0.00      21.83      35.68      28.64      64.31        0.06     0.03   0.613
  SC_ISD-352               104.90       0.00       0.00      21.83      35.52      26.49      62.01        0.09     0.04   0.591
  SC_ISD-353               104.90       0.00       0.00      21.83      35.59      27.45      63.04        0.08     0.04   0.601
  SC_ISD-354               104.90       0.00       0.00      21.83      35.57      27.17      62.75        0.08     0.04   0.598
  SC_ISD-355               104.90       0.00       0.00      21.83      35.57      27.06      62.63        0.08     0.04   0.597
  SC_ISD-356               104.90       0.00       0.00      21.83      35.11      21.84      56.94        0.20     0.09   0.543
  SC_ISD-357               104.90       0.00       0.00      21.83      35.13      22.03      57.15        0.20     0.10   0.545
  SC_ISD-358               104.90       0.00       0.00      21.83      35.55      26.90      62.45        0.09     0.05   0.595
  SC_ISD-359               104.90       0.00       0.00      21.83      35.27      23.46      58.72        0.13     0.06   0.560
  SC_ISD-360               104.90       0.00       0.00      21.83      35.71      29.17      64.88        0.05     0.03   0.619
  SC_ISD-361               104.90       0.00       0.00      21.83      35.71      29.09      64.80        0.05     0.03   0.618
  SC_ISD-362               104.90       0.00       0.00      21.83      35.53      26.63      62.16        0.08     0.04   0.593
  SC_ISD-363               104.90       0.00       0.00      21.83      35.49      26.03      61.52        0.09     0.04   0.586
  SC_ISD-364               104.90       0.00       0.00      21.83      35.52      26.39      61.90        0.08     0.04   0.590
  SC_ISD-365               104.90       0.00       0.00      21.83      35.52      26.50      62.02        0.08     0.04   0.591
  SC_ISD-366               104.90       0.00       0.00      21.83      33.49      12.38      45.86        0.87     0.42   0.437
  SC_ISD-367               104.90       0.00       0.00       8.87      60.71      15.95      76.66        1.03     0.53   0.731
  SC_ISD-368               104.90       0.00       0.00       2.65      83.09      13.40      96.49        0.13     0.07   0.920
  SC_ISD-369               104.90       0.00       0.00       2.37      84.53      12.01      96.53        0.16     0.09   0.920
  SC_ISD-370               104.90       0.00       0.00       2.11      86.46      10.84      97.30        0.13     0.07   0.928
  SC_ISD-371               104.90       0.00       0.00       2.01      87.06      10.40      97.46        0.13     0.07   0.929
  SC_ISD-372               104.90       0.00       0.00       2.00      86.76      10.24      97.00        0.16     0.09   0.925
  SC_ISD-373               104.90       0.00       0.00       2.15      85.75      10.96      96.71        0.17     0.09   0.922
  SC_ISD-374               104.90       0.00       0.00       2.31      85.10      11.77      96.87        0.13     0.07   0.923
  SC_ISD-375               104.90       0.00       0.00       2.51      83.85      12.71      96.56        0.12     0.07   0.921
  SC_ISD-376               104.90       0.00       0.00       2.79      81.60      13.79      95.39        0.15     0.08   0.909
  SC_ISD-377               104.90       0.00       0.00       3.16      79.42      15.48      94.90        0.13     0.07   0.905
  SC_ISD-378               104.90       0.00       0.00       3.44      78.15      16.99      95.14        0.09     0.05   0.907
  SC_ISD-379               104.90       0.00       0.00       3.69      76.74      18.19      94.93        0.08     0.04   0.905
  SC_ISD-380               104.90       0.00       0.00       3.99      74.25      19.03      93.28        0.11     0.06   0.889
  SC_ISD-381               104.90       0.00       0.00       4.12      73.08      19.13      92.20        0.12     0.07   0.879
  SC_ISD-382               104.90       0.00       0.00       4.40      71.80      20.73      92.53        0.08     0.04   0.882
  SC_ISD-383               104.90       0.00       0.00       7.74      69.07      20.40      89.47        0.07     0.04   0.853
  SC_ISD-384               104.90       0.00       0.00       8.13      66.98      20.36      87.34        0.11     0.06   0.833
  SC_ISD-385               104.90       0.00       0.00       8.57      64.85      20.50      85.35        0.14     0.08   0.814
  SC_ISD-386               104.90       0.00       0.00       8.94      63.61      21.57      85.18        0.12     0.06   0.812
  SC_ISD-387               104.90       0.00       0.00       9.16      63.12      22.85      85.97        0.08     0.04   0.820
  SC_ISD-388               104.90       0.00       0.00       9.34      62.46      23.24      85.70        0.08     0.04   0.817
  SC_ISD-389               104.90       0.00       0.00       9.46      61.62      22.59      84.21        0.10     0.05   0.803
  SC_ISD-390               104.90       0.00       0.00       9.66      60.45      21.95      82.40        0.14     0.07   0.786
  SC_ISD-391               104.90       0.00       0.00       9.75      60.25      22.56      82.80        0.12     0.06   0.789
  SC_ISD-392               104.90       0.00       0.00       9.83      60.00      22.80      82.79        0.11     0.06   0.789
  SC_ISD-393               104.90       0.00       0.00       9.88      59.50      22.07      81.58        0.13     0.07   0.778
  SC_ISD-394               104.90       0.00       0.00       9.90      59.65      22.76      82.41        0.11     0.06   0.786
  SC_ISD-395               104.90       0.00       0.00       9.90      60.06      23.90      83.96        0.07     0.04   0.800
  SC_ISD-396               104.90       0.00       0.00       9.90      60.05      23.87      83.92        0.07     0.04   0.800
  SC_ISD-397               104.90       0.00       0.00       9.66      60.54      22.17      82.72        0.11     0.06   0.789
  SC_ISD-398               104.90       0.00       0.00       8.38      64.76      18.70      83.46        0.14     0.07   0.796
  SC_ISD-399               104.90       0.00       0.00       9.66      60.43      21.88      82.30        0.11     0.06   0.785
  SC_ISD-400               104.90       0.00       0.00       9.61      61.11      23.03      84.14        0.07     0.04   0.802
  SC_ISD-401               104.90       0.00       0.00       9.58      61.20      22.98      84.18        0.07     0.04   0.802
  SC_ISD-402               104.90       0.00       0.00       9.58      60.77      21.89      82.66        0.10     0.06   0.788
  SC_ISD-403               104.90       0.00       0.00       9.58      60.42      21.07      81.49        0.14     0.07   0.777
  SC_ISD-404               104.90       0.00       0.00       9.66      60.43      21.89      82.33        0.11     0.06   0.785
  SC_ISD-405               104.90       0.00       0.00       9.68      60.86      23.29      84.15        0.07     0.04   0.802
  SC_ISD-406               104.90       0.00       0.00       9.70      60.70      23.16      83.86        0.07     0.04   0.799
  SC_ISD-407               104.90       0.00       0.00       9.78      60.01      22.23      82.24        0.10     0.05   0.784
  SC_ISD-408               104.90       0.00       0.00       9.88      59.61      22.34      81.95        0.10     0.05   0.781
  SC_ISD-409               104.90       0.00       0.00      10.02      59.43      23.72      83.15        0.07     0.04   0.793
  SC_ISD-410               104.90       0.00       0.00       9.93      59.79      23.47      83.26        0.07     0.04   0.794
  SC_ISD-411               104.90       0.00       0.00      10.07      59.21      23.74      82.95        0.08     0.04   0.791
  SC_ISD-412               104.90       0.00       0.00      10.12      59.13      24.14      83.27        0.07     0.04   0.794
  SC_ISD-413               104.90       0.00       0.00      10.22      58.28      22.94      81.23        0.11     0.06   0.774
  SC_ISD-414               104.90       0.00       0.00      10.37      57.48      22.48      79.96        0.13     0.07   0.762
  SC_ISD-415               104.90       0.00       0.00      10.49      57.35      23.77      81.12        0.10     0.05   0.773
  SC_ISD-416               104.90       0.00       0.00      10.59      57.31      25.11      82.42        0.07     0.04   0.786
  SC_ISD-417               104.90       0.00       0.00      10.69      56.99      25.55      82.54        0.07     0.04   0.787
  SC_ISD-418               104.90       0.00       0.00      10.79      56.25      24.43      80.68        0.10     0.05   0.769
  SC_ISD-419               104.90       0.00       0.00      10.93      55.57      24.32      79.89        0.11     0.06   0.762
[...]
  C_1113                      0.63      0.64      0.63      0.68         0.63
  C_1114                      0.63      0.63      0.63      0.67         0.63
  C_1115                      0.63      0.63      0.63      0.01         0.01
  C_1116                      0.63      0.63      0.63      0.23         0.16
  C_1117                      0.62      0.63      0.62      0.67         0.62
  C_1118                      0.62      0.62      0.62      0.16         0.14
  C_1119                      0.62      0.62      0.62      0.45         0.25
  C_1120                      0.62      0.62      0.62      0.64         0.45
  C_1121                      0.62      0.62      0.62      0.64         0.60
  C_1122                      0.62      0.62      0.62      0.11         0.09
  C_1123                      0.62      0.62      0.62      0.51         0.42
  C_1124                      0.62      0.62      0.62      0.64         0.62
  C_1125                      0.62      0.62      0.62      0.64         0.62
  C_1126                      0.62      0.62      0.62      0.62         0.62
  C_1127                      0.62      0.62      0.62      0.63         0.61
  C_1128                      0.61      0.62      0.61      0.64         0.61
  C_1129                      0.61      0.61      0.61      0.62         0.61
  C_1130                      0.61      0.61      0.61      0.63         0.61
  C_1131                      0.61      0.61      0.61      0.63         0.61
  C_1132                      0.61      0.61      0.61      0.02         0.17
  C_1133                      0.60      0.61      0.60      0.61         0.60
  C_1134                      0.60      0.60      0.60      0.61         0.60
  C_1135                      0.61      0.61      0.61      0.61         0.60
  C_1136                      0.60      0.60      0.60      0.61         0.60
  C_1137                      0.60      0.60      0.60      0.60         0.60
  C_1138                      0.60      0.60      0.60      0.60         0.60
  C_1139                      0.59      0.59      0.60      0.60         0.01
  C_1140                      0.59      0.59      0.59      0.60         0.59
  C_1141                      0.58      0.59      0.58      0.59         0.58
  C_1142                      0.58      0.58      0.58      0.59         0.58
  C_1143                      0.58      0.58      0.58      0.59         0.01
  C_1144                      0.02      0.58      0.02      0.59         0.02
  C_1145                      0.51      0.55      0.51      0.59         0.51
  C_1146                      0.55      0.58      0.55      0.73         0.55
  C_1147                      0.58      0.60      0.58      0.74         0.58
  C_1148                      0.60      0.60      0.60      0.59         0.60
  C_1149                      0.58      0.58      0.60      0.56         0.56
  C_1150                      0.58      0.58      0.58      0.55         0.55
  C_1151                      0.58      0.58      0.58      0.56         0.56
  C_1152                      0.57      0.57      0.58      0.55         0.55
  C_1153                      0.56      0.56      0.57      0.53         0.53
  C_1154                      0.56      0.56      0.56      0.50         0.50
  C_1155                      0.55      0.55      0.56      0.34         0.28
  C_1156                      0.55      0.55      0.55      0.03         0.02
  C_1157                      0.54      0.54      0.55      0.01         0.01
  C_1158                      0.53      0.53      0.54      0.01         0.01
  C_1159                      0.51      0.51      0.52      0.01         0.01
  C_1160                      0.52      0.52      0.53      0.20         0.15
  C_1161                      0.51      0.51      0.51      0.01         0.01
  C_1162                      0.49      0.49      0.51      0.01         0.01
  C_1163                      0.45      0.45      0.49      0.01         0.01
  C_1164                      0.30      0.30      0.45      0.01         0.01
  C_1165                      0.01      0.01      0.02      0.01         0.01
  C_1188                      0.01      0.01      0.35      0.01         0.01
  C_1189                      0.35      0.35      0.37      0.01         0.01
  C_1190                      0.37      0.37      0.39      0.01         0.01
  C_1191                      0.39      0.39      0.39      0.01         0.01
  C_1192                      0.39      0.39      0.41      0.25         0.22
  C_1193                      0.41      0.41      0.44      0.35         0.35
  C_1194                      0.42      0.44      0.42      0.46         0.42
  C_1195                      0.01      0.42      0.01      0.44         0.01
  C_1197                      0.64      0.65      0.64      0.71         0.64
  C_1198                      0.65      0.65      0.65      0.13         0.06
  C_1199                      0.65      0.65      0.65      0.01         0.01
  C_1200                      0.64      0.64      0.65      0.62         0.50
  C_1201                      0.64      0.64      0.64      0.63         0.63
  C_1202                      0.64      0.64      0.64      0.03         0.06
  C_1203                      0.64      0.64      0.64      0.62         0.49
  C_1204                      0.64      0.64      0.64      0.43         0.31
  C_1205                      0.64      0.64      0.64      0.04         0.23
  C_1206                      0.64      0.64      0.64      0.66         0.61
  C_1207                      0.64      0.64      0.64      0.08         0.02
  C_1208                      0.63      0.63      0.64      0.01         0.01
  C_1209                      0.63      0.63      0.63      0.64         0.63
  C_1210                      0.63      0.63      0.63      0.01         0.01
  C_1211                      0.63      0.63      0.63      0.01         0.28
  C_1212                      0.63      0.63      0.63      0.57         0.58
  C_1213                      0.62      0.62      0.63      0.01         0.01
  C_1214                      0.55      0.55      0.58      0.01         0.01
  C_1215                      0.52      0.52      0.55      0.01         0.01
  C_1216                      0.31      0.31      0.41      0.01         0.01
  C_1217                      0.13      0.13      0.31      0.01         0.01
  C_1218                      0.01      0.01      0.13      0.01         0.01
  C_1222                      0.01      0.01      0.01      0.58         0.01
  C_1236                      0.01      0.44      0.01      0.55         0.01
  C_1237                      0.01      0.01      0.01      0.07         0.01
  C_1239                      0.46      0.46      0.55      0.63         0.01
  C_1240                      0.44      0.46      0.44      0.54         0.44
  C_1242                      0.01      0.01      0.01      0.59         0.01
  C_1244                      0.01      0.01      0.57      0.01         0.01
  C_1245                      0.57      0.57      0.59      0.01         0.01
  C_1246                      0.59      0.59      0.59      0.01         0.01
  C_1247                      0.59      0.59      0.59      0.01         0.01
  C_1248                      0.59      0.59      0.60      0.01         0.01
  C_1249                      0.60      0.60      0.61      0.01         0.01
  C_1250                      0.61      0.61      0.61      0.01         0.06
  C_1251                      0.61      0.61      0.61      0.01         0.15
  C_1252                      0.61      0.61      0.61      0.61         0.01
  C_1253                      0.61      0.61      0.61      0.58         0.01
  C_1254                      0.60      0.60      0.61      0.01         0.01
  C_1255                      0.60      0.60      0.60      0.01         0.01
  C_1256                      0.60      0.60      0.61      0.09         0.01
  C_1257                      0.61      0.61      0.64      0.01         0.01
  C_1258                      0.64      0.64      0.65      0.01         0.01
  C_1259                      0.67      0.67      0.68      0.01         0.01
  C_1260                      0.65      0.65      0.65      0.76         0.64
  C_1261                      0.65      0.65      0.65      0.01         0.01
  C_1262                      0.65      0.65      0.65      0.01         0.01
  C_1263                      0.64      0.64      0.65      0.01         0.01
  C_1264                      0.64      0.64      0.64      0.24         0.24
  C_1265                      0.63      0.63      0.64      0.01         0.01
  C_1266                      0.62      0.62      0.63      0.01         0.01
  C_1267                      0.58      0.58      0.62      0.01         0.01
  C_1268                      0.57      0.57      0.58      0.01         0.01
  C_1269                      0.43      0.43      0.57      0.01         0.01
  C_1270                      0.01      0.01      0.43      0.01         0.01
  C_1276                      0.01      0.37      0.01      0.44         0.01
  C_1277                      0.37      0.39      0.37      0.47         0.36
  C_1278                      0.38      0.38      0.46      0.55         0.01
  C_1279                      0.46      0.54      0.46      0.68         0.45
  C_1280                      0.54      0.55      0.54      0.72         0.54
  C_1281                      0.55      0.55      0.55      0.60         0.01
  C_1282                      0.55      0.55      0.55      0.54         0.52
  C_1283                      0.55      0.55      0.55      0.37         0.37
  C_1284                      0.55      0.55      0.55      0.49         0.48
  C_1285                      0.55      0.55      0.55      0.36         0.36
  C_1286                      0.54      0.54      0.55      0.46         0.46
  C_1287                      0.50      0.50      0.54      0.01         0.01
  C_1288                      0.50      0.50      0.50      0.41         0.40
  C_1289                      0.48      0.48      0.50      0.01         0.07
  C_1290                      0.47      0.47      0.48      0.01         0.01
  C_1291                      0.47      0.47      0.48      0.58         0.01
  C_1292                      0.44      0.44      0.48      0.01         0.01
  C_1293                      0.44      0.44      0.44      0.46         0.43
  C_1294                      0.44      0.44      0.44      0.52         0.44
  C_1295                      0.44      0.45      0.44      0.56         0.44
  C_1296                      0.45      0.45      0.45      0.43         0.38
  C_1297                      0.44      0.44      0.45      0.34         0.30
  C_1298                      0.44      0.44      0.44      0.39         0.35
  C_1299                      0.43      0.43      0.44      0.01         0.01
  C_1300                      0.43      0.43      0.43      0.01         0.01
  C_1301                      0.41      0.41      0.43      0.01         0.01
  C_1302                      0.41      0.41      0.41      0.01         0.01
  C_1303                      0.40      0.40      0.41      0.01         0.01
  C_1304                      0.40      0.40      0.40      0.34         0.32
  C_1305                      0.39      0.39      0.40      0.01         0.01
  C_1306                      0.38      0.38      0.39      0.01         0.01
  C_1307                      0.37      0.37      0.38      0.01         0.01
  C_1308                      0.36      0.36      0.37      0.01         0.01
  C_1309                      0.35      0.35      0.36      0.01         0.01
  C_1310                      0.33      0.33      0.35      0.01         0.01
  C_1311                      0.30      0.30      0.33      0.01         0.01
  C_1312                      0.29      0.29      0.30      0.01         0.01
  C_1313                      0.01      0.01      0.29      0.01         0.01
  C_1322                      0.01      0.01      0.01      0.59         0.01
  C_1325                      0.35      0.48      0.35      0.60         0.35
  C_1326                      0.47      0.47      0.48      0.41         0.42
  C_1327                      0.28      0.28      0.47      0.01         0.01
  C_1328                      0.20      0.20      0.28      0.01         0.01
  C_1329                      0.16      0.16      0.20      0.01         0.01
  C_1330                      0.01      0.01      0.16      0.01         0.01
  C_1333                      0.01      0.01      0.01      0.50         0.01
  C_1334                      0.01      0.01      0.01      0.62         0.01
  C_1335                      0.01      0.01      0.01      0.03         0.01
  C_1336                      0.01      0.07      0.01      0.63         0.01
  C_1337                      0.07      0.07      0.27      0.62         0.01
  C_1338                      0.27      0.27      0.64      0.11         0.01
  C_1339                      0.64      0.64      0.64      0.01         0.01
  C_1340                      0.64      0.64      0.65      0.01         0.01
  C_1341                      0.65      0.65      0.65      0.01         0.01
  C_1342                      0.65      0.65      0.65      0.11         0.01
  C_1343                      0.65      0.65      0.65      0.01         0.01
  C_1344                      0.65      0.65      0.65      0.55         0.01
  C_1345                      0.65      0.65      0.66      0.01         0.01
  C_1346                      0.66      0.66      0.66      0.01         0.01
  C_1347                      0.66      0.66      0.66      0.66         0.51
  C_1348                      0.66      0.66      0.66      0.67         0.55
  C_1349                      0.66      0.66      0.67      0.01         0.01
  C_1350                      0.70      0.70      0.70      0.67         0.01
  C_1351                      0.70      0.70      0.70      0.68         0.68
  C_1352                      0.68      0.68      0.70      0.02         0.02
  C_1353                      0.67      0.67      0.68      0.41         0.40
  C_1354                      0.67      0.67      0.67      0.01         0.01
  C_1355                      0.67      0.67      0.67      0.01         0.01
  C_1356                      0.67      0.67      0.67      0.69         0.41
  C_1357                      0.67      0.67      0.67      0.04         0.03
  C_1358                      0.67      0.67      0.67      0.04         0.13
  C_1359                      0.67      0.67      0.67      0.45         0.44
  C_1360                      0.67      0.67      0.68      0.01         0.01
  C_1361                      0.68      0.68      0.72      0.01         0.01
  C_1362                      0.72      0.72      0.73      0.01         0.01
  C_1363                      0.73      0.73      0.73      0.50         0.01
  C_1364                      0.73      0.73      0.73      0.13         0.03
  C_1365                      0.73      0.73      0.73      0.10         0.03
  C_1366                      0.71      0.71      0.73      0.01         0.01
  C_1367                      0.70      0.70      0.71      0.01         0.01
  C_1368                      0.69      0.69      0.70      0.01         0.01
  C_1369                      0.67      0.67      0.69      0.01         0.01
  C_1370                      0.67      0.67      0.67      0.01         0.01
  C_1371                      0.67      0.67      0.68      0.01         0.18
  C_1372                      0.68      0.68      0.68      0.01         0.01
  C_1373                      0.68      0.68      0.68      0.01         0.01
  C_1374                      0.68      0.68      0.68      0.01         0.01
  C_1375                      0.68      0.68      0.69      0.01         0.01
  C_1376                      0.69      0.69      0.70      0.01         0.01
  C_1377                      0.70      0.70      0.70      0.01         0.01
  C_1378                      0.70      0.70      0.70      0.65         0.66
  C_1379                      0.70      0.70      0.70      0.01         0.01
  C_1380                      0.70      0.70      0.70      0.01         0.11
  C_1381                      0.70      0.70      0.70      0.01         0.01
  C_1382                      0.70      0.70      0.70      0.01         0.01
  C_1383                      0.69      0.69      0.70      0.01         0.01
  C_1384                      0.69      0.69      0.69      0.01         0.01
  C_1385                      0.68      0.68      0.69      0.40         0.41
  C_1386                      0.68      0.68      0.68      0.01         0.01
  C_1387                      0.68      0.68      0.68      0.01         0.01
  C_1388                      0.67      0.67      0.68      0.01         0.01
  C_1389                      0.01      0.01      0.67      0.01         0.01
  C_1391                      0.01      0.01      0.12      0.01         0.01
  C_1392                      0.12      0.12      0.23      0.01         0.01
  C_1393                      0.23      0.23      0.38      0.01         0.01
  C_1394                      0.38      0.38      0.40      0.01         0.01
  C_1395                      0.40      0.40      0.41      0.01         0.01
  C_1396                      0.41      0.41      0.57      0.01         0.01
  C_1397                      0.56      0.57      0.56      0.66         0.56
  C_1398                      0.56      0.56      0.56      0.56         0.56
  C_1399                      0.56      0.56      0.56      0.58         0.56
  C_1400                      0.01      0.01      0.56      0.68         0.01
  C_1401                      0.01      0.48      0.01      0.51         0.01
  C_1402                      0.48      0.49      0.48      0.52         0.48
  C_1403                      0.49      0.49      0.50      0.65         0.01
  C_1404                      0.50      0.50      0.50      0.51         0.50
  C_1405                      0.50      0.50      0.50      0.49         0.49
  C_1406                      0.49      0.49      0.50      0.45         0.46
  C_1407                      0.48      0.48      0.49      0.45         0.46
  C_1408                      0.48      0.48      0.48      0.45         0.46
  C_1409                      0.47      0.47      0.48      0.21         0.24
  C_1410                      0.47      0.47      0.48      0.01         0.01
  C_1411                      0.47      0.47      0.48      0.01         0.01
  C_1412                      0.47      0.47      0.47      0.45         0.46
  C_1413                      0.47      0.47      0.47      0.07         0.11
  C_1414                      0.47      0.47      0.47      0.47         0.01
  C_1415                      0.47      0.47      0.47      0.01         0.05
  C_1416                      0.47      0.47      0.47      0.01         0.01
  C_1417                      0.47      0.47      0.47      0.01         0.01
  C_1418                      0.47      0.47      0.47      0.22         0.01
  C_1419                      0.46      0.46      0.46      0.01         0.01
  C_1420                      0.46      0.46      0.46      0.01         0.01
  C_1421                      0.46      0.46      0.46      0.01         0.01
  C_1422                      0.45      0.45      0.46      0.01         0.01
  C_1423                      0.44      0.44      0.45      0.01         0.01
  C_1424                      0.42      0.42      0.42      0.41         0.41
  C_1425                      0.42      0.42      0.44      0.39         0.40
  C_1426                      0.01      0.01      0.62      0.01         0.01
  

  Analysis begun on:  Mon Oct 27 18:54:51 2025
  Analysis ended on:  Mon Oct 27 18:54:56 2025
  Total elapsed time: 00:00:05