
  EPA STORM WATER MANAGEMENT MODEL - VERSION 5.2 (Build 5.2.4)
  PYSWMM TOOLKIT API - VERSION v1.0 (2025-09-04)
  ------------------------------------------------------------

  Mandaue City Drainage Network Model 
  Generated from GIS data 
  2025-10-16 15:17 
  WARNING 04: minimum elevation drop used for Conduit C_181-C-95
  WARNING 04: minimum elevation drop used for Conduit C_224-C-3
  WARNING 04: minimum elevation drop used for Conduit C_230-C-3
  WARNING 04: minimum elevation drop used for Conduit C_242-C-3
  WARNING 04: minimum elevation drop used for Conduit C_243-C-3
  WARNING 04: minimum elevation drop used for Conduit C_328-C-113
  WARNING 04: minimum elevation drop used for Conduit C_331-C-113
  WARNING 04: minimum elevation drop used for Conduit C_341-C-113
  WARNING 04: minimum elevation drop used for Conduit C_377-C-113
  WARNING 04: minimum elevation drop used for Conduit C_386-C-142
  WARNING 04: minimum elevation drop used for Conduit C_394-C-142
  WARNING 04: minimum elevation drop used for Conduit C_406-C-142
  WARNING 04: minimum elevation drop used for Conduit C_429-C-55
  WARNING 04: minimum elevation drop used for Conduit C_436-C-55
  WARNING 04: minimum elevation drop used for Conduit C_441-C-106
  WARNING 04: minimum elevation drop used for Conduit C_446-C-106
  WARNING 04: minimum elevation drop used for Conduit C_462-C-8
  WARNING 04: minimum elevation drop used for Conduit C_478-C-28
  WARNING 04: minimum elevation drop used for Conduit C_479-C-28
  WARNING 04: minimum elevation drop used for Conduit C_483-C-28
  WARNING 04: minimum elevation drop used for Conduit C_492-C-28
  WARNING 04: minimum elevation drop used for Conduit C_585-C-7
  WARNING 04: minimum elevation drop used for Conduit C_587-C-7
  WARNING 04: minimum elevation drop used for Conduit C_591-C-7
  WARNING 04: minimum elevation drop used for Conduit C_597-C-7
  WARNING 04: minimum elevation drop used for Conduit C_600-C-7
  WARNING 04: minimum elevation drop used for Conduit C_603-C-7
  WARNING 04: minimum elevation drop used for Conduit C_642-C-7
  WARNING 04: minimum elevation drop used for Conduit C_649-C-7
  WARNING 04: minimum elevation drop used for Conduit C_671-C-7
  WARNING 04: minimum elevation drop used for Conduit C_677-C-7
  WARNING 04: minimum elevation drop used for Conduit C_737-C-81
  WARNING 04: minimum elevation drop used for Conduit C_752-C-24
  WARNING 04: minimum elevation drop used for Conduit C_783-C-83
  WARNING 04: minimum elevation drop used for Conduit C_786-C-83
  WARNING 04: minimum elevation drop used for Conduit C_798-C-83
  WARNING 04: minimum elevation drop used for Conduit C_857-C-32
  WARNING 04: minimum elevation drop used for Conduit C_909-C-34
  WARNING 04: minimum elevation drop used for Conduit C_921-C-34
  WARNING 04: minimum elevation drop used for Conduit C_953-C-2
  WARNING 04: minimum elevation drop used for Conduit C_964-C-2
  WARNING 04: minimum elevation drop used for Conduit C_1131-C-112
  WARNING 04: minimum elevation drop used for Conduit C_1136-C-112
  WARNING 04: minimum elevation drop used for Conduit C_1138-C-112
  WARNING 04: minimum elevation drop used for Conduit C_1140-C-112
  WARNING 04: minimum elevation drop used for Conduit C_1141-C-112
  WARNING 04: minimum elevation drop used for Conduit C_1144-C-112
  WARNING 04: minimum elevation drop used for Conduit C_1146-C-140
  WARNING 04: minimum elevation drop used for Conduit C_1147-C-140
  WARNING 04: minimum elevation drop used for Conduit C_1234-C-30
  WARNING 04: minimum elevation drop used for Conduit C_1260-C-85
  WARNING 04: minimum elevation drop used for Conduit C_1280-C-35
  WARNING 04: minimum elevation drop used for Conduit C_1347-C-42
  WARNING 04: minimum elevation drop used for Conduit C_1348-C-42
  WARNING 04: minimum elevation drop used for Conduit C_1351-C-89
  WARNING 04: minimum elevation drop used for Conduit C_1356-C-89
  WARNING 04: minimum elevation drop used for Conduit C_1364-C-89
  WARNING 04: minimum elevation drop used for Conduit C_1365-C-89
  WARNING 02: maximum depth increased for Node I-8
  WARNING 02: maximum depth increased for Node I-14
  WARNING 02: maximum depth increased for Node I-23
  WARNING 02: maximum depth increased for Node I-30
  WARNING 02: maximum depth increased for Node I-33
  WARNING 02: maximum depth increased for Node I-35
  WARNING 02: maximum depth increased for Node I-36
  WARNING 02: maximum depth increased for Node I-37
  WARNING 02: maximum depth increased for Node I-41
  WARNING 02: maximum depth increased for Node I-43
  WARNING 02: maximum depth increased for Node I-46
  WARNING 02: maximum depth increased for Node I-50
  WARNING 02: maximum depth increased for Node I-51
  WARNING 02: maximum depth increased for Node I-53
  WARNING 02: maximum depth increased for Node I-60
  WARNING 02: maximum depth increased for Node I-63
  WARNING 02: maximum depth increased for Node I-64
  WARNING 02: maximum depth increased for Node I-65
  WARNING 02: maximum depth increased for Node I-66
  WARNING 02: maximum depth increased for Node I-68
  WARNING 02: maximum depth increased for Node I-72
  WARNING 02: maximum depth increased for Node I-74
  WARNING 02: maximum depth increased for Node I-75
  WARNING 02: maximum depth increased for Node I-77
  WARNING 02: maximum depth increased for Node I-78
  WARNING 02: maximum depth increased for Node I-79
  WARNING 02: maximum depth increased for Node I-82
  WARNING 02: maximum depth increased for Node I-90
  WARNING 02: maximum depth increased for Node I-91
  WARNING 02: maximum depth increased for Node I-96
  WARNING 02: maximum depth increased for Node I-104
  WARNING 02: maximum depth increased for Node I-106
  WARNING 02: maximum depth increased for Node I-108
  WARNING 02: maximum depth increased for Node I-113
  WARNING 02: maximum depth increased for Node I-117
  WARNING 02: maximum depth increased for Node I-125
  WARNING 02: maximum depth increased for Node I-126
  WARNING 02: maximum depth increased for Node I-128
  WARNING 02: maximum depth increased for Node I-136
  WARNING 02: maximum depth increased for Node I-137
  WARNING 02: maximum depth increased for Node I-139
  WARNING 02: maximum depth increased for Node I-140
  WARNING 02: maximum depth increased for Node ISD-1
  WARNING 02: maximum depth increased for Node ISD-2
  WARNING 02: maximum depth increased for Node ISD-3
  WARNING 02: maximum depth increased for Node ISD-4
  WARNING 02: maximum depth increased for Node ISD-5
  WARNING 02: maximum depth increased for Node ISD-6
  WARNING 02: maximum depth increased for Node ISD-7
  WARNING 02: maximum depth increased for Node ISD-8
  WARNING 02: maximum depth increased for Node ISD-9
  WARNING 02: maximum depth increased for Node ISD-10
  WARNING 02: maximum depth increased for Node ISD-11
  WARNING 02: maximum depth increased for Node ISD-12
  WARNING 02: maximum depth increased for Node ISD-13
  WARNING 02: maximum depth increased for Node ISD-14
  WARNING 02: maximum depth increased for Node ISD-15
  WARNING 02: maximum depth increased for Node ISD-16
  WARNING 02: maximum depth increased for Node ISD-17
  WARNING 02: maximum depth increased for Node ISD-18
  WARNING 02: maximum depth increased for Node ISD-19
  WARNING 02: maximum depth increased for Node ISD-20
  WARNING 02: maximum depth increased for Node ISD-21
  WARNING 02: maximum depth increased for Node ISD-22
  WARNING 02: maximum depth increased for Node ISD-23
  WARNING 02: maximum depth increased for Node ISD-24
  WARNING 02: maximum depth increased for Node ISD-25
  WARNING 02: maximum depth increased for Node ISD-26
  WARNING 02: maximum depth increased for Node ISD-27
  WARNING 02: maximum depth increased for Node ISD-28
  WARNING 02: maximum depth increased for Node ISD-29
  WARNING 02: maximum depth increased for Node ISD-30
  WARNING 02: maximum depth increased for Node ISD-31
  WARNING 02: maximum depth increased for Node ISD-32
  WARNING 02: maximum depth increased for Node ISD-33
  WARNING 02: maximum depth increased for Node ISD-34
  WARNING 02: maximum depth increased for Node ISD-35
  WARNING 02: maximum depth increased for Node ISD-36
  WARNING 02: maximum depth increased for Node ISD-37
  WARNING 02: maximum depth increased for Node ISD-38
  WARNING 02: maximum depth increased for Node ISD-39
  WARNING 02: maximum depth increased for Node ISD-40
  WARNING 02: maximum depth increased for Node ISD-41
  WARNING 02: maximum depth increased for Node ISD-42
  WARNING 02: maximum depth increased for Node ISD-43
  WARNING 02: maximum depth increased for Node ISD-44
  WARNING 02: maximum depth increased for Node ISD-45
  WARNING 02: maximum depth increased for Node ISD-46
  WARNING 02: maximum depth increased for Node ISD-47
  WARNING 02: maximum depth increased for Node ISD-48
  WARNING 02: maximum depth increased for Node ISD-49
  WARNING 02: maximum depth increased for Node ISD-50
  WARNING 02: maximum depth increased for Node ISD-51
  WARNING 02: maximum depth increased for Node ISD-52
  WARNING 02: maximum depth increased for Node ISD-53
  WARNING 02: maximum depth increased for Node ISD-54
  WARNING 02: maximum depth increased for Node ISD-55
  WARNING 02: maximum depth increased for Node ISD-56
  WARNING 02: maximum depth increased for Node ISD-57
  WARNING 02: maximum depth increased for Node ISD-58
  WARNING 02: maximum depth increased for Node ISD-59
  WARNING 02: maximum depth increased for Node ISD-60
  WARNING 02: maximum depth increased for Node ISD-61
  WARNING 02: maximum depth increased for Node ISD-62
  WARNING 02: maximum depth increased for Node ISD-63
  WARNING 02: maximum depth increased for Node ISD-64
  WARNING 02: maximum depth increased for Node ISD-65
  WARNING 02: maximum depth increased for Node ISD-66
  WARNING 02: maximum depth increased for Node ISD-67
  WARNING 02: maximum depth increased for Node ISD-68
  WARNING 02: maximum depth increased for Node ISD-273
  WARNING 02: maximum depth increased for Node ISD-274
  WARNING 02: maximum depth increased for Node ISD-275
  WARNING 02: maximum depth increased for Node ISD-276
  WARNING 02: maximum depth increased for Node ISD-277
  WARNING 02: maximum depth increased for Node ISD-278
  WARNING 02: maximum depth increased for Node ISD-279
  WARNING 02: maximum depth increased for Node ISD-280
  WARNING 02: maximum depth increased for Node ISD-281
  WARNING 02: maximum depth increased for Node ISD-282
  WARNING 02: maximum depth increased for Node ISD-283
  WARNING 02: maximum depth increased for Node ISD-285
  WARNING 02: maximum depth increased for Node ISD-286
  WARNING 02: maximum depth increased for Node ISD-287
  WARNING 02: maximum depth increased for Node ISD-288
  WARNING 02: maximum depth increased for Node ISD-289
  WARNING 02: maximum depth increased for Node ISD-290
  WARNING 02: maximum depth increased for Node ISD-291
  WARNING 02: maximum depth increased for Node ISD-292
  WARNING 02: maximum depth increased for Node ISD-293
  WARNING 02: maximum depth increased for Node ISD-294
  WARNING 02: maximum depth increased for Node ISD-295
  WARNING 02: maximum depth increased for Node ISD-296
  WARNING 02: maximum depth increased for Node ISD-297
  WARNING 02: maximum depth increased for Node ISD-298
  WARNING 02: maximum depth increased for Node ISD-299
  WARNING 02: maximum depth increased for Node ISD-300
  WARNING 02: maximum depth increased for Node ISD-301
  WARNING 02: maximum depth increased for Node ISD-302
  WARNING 02: maximum depth increased for Node ISD-303
  WARNING 02: maximum depth increased for Node ISD-304
  WARNING 02: maximum depth increased for Node ISD-305
  WARNING 02: maximum depth increased for Node ISD-306
  WARNING 02: maximum depth increased for Node ISD-307
  WARNING 02: maximum depth increased for Node ISD-308
  WARNING 02: maximum depth increased for Node ISD-309
  WARNING 02: maximum depth increased for Node ISD-310
  WARNING 02: maximum depth increased for Node ISD-311
  WARNING 02: maximum depth increased for Node ISD-312
  WARNING 02: maximum depth increased for Node ISD-313
  WARNING 02: maximum depth increased for Node ISD-314
  WARNING 02: maximum depth increased for Node ISD-315
  WARNING 02: maximum depth increased for Node ISD-316
  WARNING 02: maximum depth increased for Node ISD-317
  WARNING 02: maximum depth increased for Node ISD-318
  WARNING 02: maximum depth increased for Node ISD-319
  WARNING 02: maximum depth increased for Node ISD-320
  WARNING 02: maximum depth increased for Node ISD-321
  WARNING 02: maximum depth increased for Node ISD-322
  WARNING 02: maximum depth increased for Node ISD-323
  WARNING 02: maximum depth increased for Node ISD-324
  WARNING 02: maximum depth increased for Node ISD-325
  WARNING 02: maximum depth increased for Node ISD-326
  WARNING 02: maximum depth increased for Node ISD-327
  WARNING 02: maximum depth increased for Node ISD-328
  WARNING 02: maximum depth increased for Node ISD-329
  WARNING 02: maximum depth increased for Node ISD-330
  WARNING 02: maximum depth increased for Node ISD-331
  WARNING 02: maximum depth increased for Node ISD-332
  WARNING 02: maximum depth increased for Node ISD-333
  WARNING 02: maximum depth increased for Node ISD-334
  WARNING 02: maximum depth increased for Node ISD-335
  WARNING 02: maximum depth increased for Node ISD-336
  WARNING 02: maximum depth increased for Node ISD-337
  WARNING 02: maximum depth increased for Node ISD-338
  WARNING 02: maximum depth increased for Node ISD-339
  WARNING 02: maximum depth increased for Node ISD-340
  WARNING 02: maximum depth increased for Node ISD-341
  WARNING 02: maximum depth increased for Node ISD-342
  WARNING 02: maximum depth increased for Node ISD-343
  WARNING 02: maximum depth increased for Node ISD-344
  WARNING 02: maximum depth increased for Node ISD-345
  WARNING 02: maximum depth increased for Node ISD-346
  WARNING 02: maximum depth increased for Node ISD-347
  WARNING 02: maximum depth increased for Node ISD-348
  WARNING 02: maximum depth increased for Node ISD-349
  WARNING 02: maximum depth increased for Node ISD-350
  WARNING 02: maximum depth increased for Node ISD-351
  WARNING 02: maximum depth increased for Node ISD-352
  WARNING 02: maximum depth increased for Node ISD-353
  WARNING 02: maximum depth increased for Node ISD-354
  WARNING 02: maximum depth increased for Node ISD-355
  WARNING 02: maximum depth increased for Node ISD-356
  WARNING 02: maximum depth increased for Node ISD-357
  WARNING 02: maximum depth increased for Node ISD-358
  WARNING 02: maximum depth increased for Node ISD-1089
  WARNING 02: maximum depth increased for Node ISD-1090
  WARNING 02: maximum depth increased for Node ISD-1091
  WARNING 02: maximum depth increased for Node ISD-1092
  WARNING 02: maximum depth increased for Node ISD-1093
  WARNING 02: maximum depth increased for Node ISD-1094
  WARNING 02: maximum depth increased for Node ISD-1095
  WARNING 02: maximum depth increased for Node ISD-1096
  WARNING 02: maximum depth increased for Node ISD-1097
  WARNING 02: maximum depth increased for Node ISD-1098
  WARNING 02: maximum depth increased for Node ISD-1099
  WARNING 02: maximum depth increased for Node ISD-1100
  WARNING 02: maximum depth increased for Node ISD-1101
  WARNING 02: maximum depth increased for Node ISD-1102
  WARNING 02: maximum depth increased for Node ISD-1103
  WARNING 02: maximum depth increased for Node ISD-1104
  WARNING 02: maximum depth increased for Node ISD-1105
  WARNING 02: maximum depth increased for Node ISD-1106
  WARNING 02: maximum depth increased for Node ISD-1107
  WARNING 02: maximum depth increased for Node ISD-1108
  WARNING 02: maximum depth increased for Node ISD-1109
  WARNING 02: maximum depth increased for Node ISD-1110
  WARNING 02: maximum depth increased for Node ISD-1111
  WARNING 02: maximum depth increased for Node ISD-1112
  WARNING 02: maximum depth increased for Node ISD-1113
  WARNING 02: maximum depth increased for Node ISD-1114
  WARNING 02: maximum depth increased for Node ISD-1115
  WARNING 02: maximum depth increased for Node ISD-1116
  WARNING 02: maximum depth increased for Node ISD-1117
  WARNING 02: maximum depth increased for Node ISD-1118
  WARNING 02: maximum depth increased for Node ISD-1119
  WARNING 02: maximum depth increased for Node ISD-1120
  WARNING 02: maximum depth increased for Node ISD-1121
  WARNING 02: maximum depth increased for Node ISD-1122
  WARNING 02: maximum depth increased for Node ISD-1123
  WARNING 02: maximum depth increased for Node ISD-1124
  WARNING 02: maximum depth increased for Node ISD-1125
  WARNING 02: maximum depth increased for Node ISD-1126
  WARNING 02: maximum depth increased for Node ISD-1127
  WARNING 02: maximum depth increased for Node ISD-1128
  WARNING 02: maximum depth increased for Node ISD-1129
  WARNING 02: maximum depth increased for Node ISD-1130
  WARNING 02: maximum depth increased for Node ISD-1131
  WARNING 02: maximum depth increased for Node ISD-1132
  WARNING 02: maximum depth increased for Node ISD-1133
  WARNING 02: maximum depth increased for Node ISD-1134
  WARNING 02: maximum depth increased for Node ISD-1135
  WARNING 02: maximum depth increased for Node ISD-1136
  WARNING 02: maximum depth increased for Node ISD-1137
  WARNING 02: maximum depth increased for Node ISD-1138
  
  ****************
  Analysis Options
  ****************
  Flow Units ............... CMS
  Process Models:
    Rainfall/Runoff ........ YES
    RDII ................... NO
    Snowmelt ............... NO
    Groundwater ............ NO
    Flow Routing ........... YES
    Ponding Allowed ........ YES
    Water Quality .......... NO
  Infiltration Method ...... HORTON
  Flow Routing Method ...... DYNWAVE
  Surcharge Method ......... EXTRAN
  Starting Date ............ 01/01/2024 00:00:00
  Ending Date .............. 01/02/2024 00:00:00
  Antecedent Dry Days ...... 0.0
  Report Time Step ......... 00:15:00
  Wet Time Step ............ 00:05:00
  Dry Time Step ............ 01:00:00
  Routing Time Step ........ 10.00 sec
  Variable Time Step ....... YES
  Maximum Trials ........... 8
  Number of Threads ........ 1
  Head Tolerance ........... 0.001500 m
  
  
  **************************        Volume         Depth
  Runoff Quantity Continuity     hectare-m            mm
  **************************     ---------       -------
  Total Precipitation ......       108.293       140.000
  Evaporation Loss .........         0.000         0.000
  Infiltration Loss ........        33.507        43.317
  Surface Runoff ...........        75.176        97.186
  Final Storage ............         0.393         0.509
  Continuity Error (%) .....        -0.723
  
  
  **************************        Volume        Volume
  Flow Routing Continuity        hectare-m      10^6 ltr
  **************************     ---------     ---------
  Dry Weather Inflow .......         0.000         0.000
  Wet Weather Inflow .......        75.167       751.674
  Groundwater Inflow .......         0.000         0.000
  RDII Inflow ..............         0.000         0.000
  External Inflow ..........         0.000         0.000
  External Outflow .........        22.045       220.455
  Flooding Loss ............        52.681       526.817
  Evaporation Loss .........         0.000         0.000
  Exfiltration Loss ........         0.000         0.000
  Initial Stored Volume ....         0.019         0.188
  Final Stored Volume ......         0.515         5.149
  Continuity Error (%) .....        -0.074
  
  
  *************************
  Highest Continuity Errors
  *************************
  Node I-2 (-39.49%)
  Node I-30 (14.64%)
  Node I-1 (-10.39%)
  Node I-114 (4.60%)
  Node I-36 (4.43%)
  
  
  ***************************
  Time-Step Critical Elements
  ***************************
  Link C_155-C-140 (48.95%)
  Link C_476-C-28 (11.22%)
  Link C_100-C-106 (7.59%)
  Link C_863-C-32 (3.38%)
  Link C_1298-C-35 (2.78%)
  
  
  ********************************
  Highest Flow Instability Indexes
  ********************************
  Link C_992-C-2 (60)
  Link C_5-C-97 (58)
  Link C_180-C-96 (52)
  Link C_633-C-7 (52)
  Link C_631-C-7 (50)
  
  
  *********************************
  Most Frequent Nonconverging Nodes
  *********************************
  Node O-0 (33.89%)
  Node O-1 (33.89%)
  Node O-2 (33.89%)
  Node O-3 (33.89%)
  Node O-4 (33.89%)
  
  
  *************************
  Routing Time Step Summary
  *************************
  Minimum Time Step           :     0.50 sec
  Average Time Step           :     1.93 sec
  Maximum Time Step           :    10.00 sec
  % of Time in Steady State   :     0.00
  Average Iterations per Step :     4.97
  % of Steps Not Converging   :    33.89
  Time Step Frequencies       :
     10.000 -  5.493 sec      :     2.94 %
      5.493 -  3.017 sec      :    15.65 %
      3.017 -  1.657 sec      :    36.02 %
      1.657 -  0.910 sec      :     6.91 %
      0.910 -  0.500 sec      :    38.48 %
  
  
  ***************************
  Subcatchment Runoff Summary
  ***************************
  
  ------------------------------------------------------------------------------------------------------------------------------
                            Total      Total      Total      Total     Imperv       Perv      Total       Total     Peak  Runoff
                           Precip      Runon       Evap      Infil     Runoff     Runoff     Runoff      Runoff   Runoff   Coeff
  Subcatchment                 mm         mm         mm         mm         mm         mm         mm    10^6 ltr      CMS
  ------------------------------------------------------------------------------------------------------------------------------
  SC_I-0                   140.00       0.00       0.00      67.54       0.00      72.86      72.86        2.13     0.89   0.520
  SC_I-1                   140.00       0.00       0.00      73.52       0.00      66.77      66.77        2.85     1.03   0.477
  SC_I-2                   140.00       0.00       0.00      31.38      61.20      47.79     109.00        3.21     1.83   0.779
  SC_I-3                   140.00       0.00       0.00      77.92       0.00      62.31      62.31        2.07     0.67   0.445
  SC_I-4                   140.00       0.00       0.00      25.62      70.20      44.63     114.83        2.59     1.61   0.820
  SC_I-5                   140.00       0.00       0.00      53.19      49.05      37.94      86.98        8.60     4.35   0.621
  SC_I-6                   140.00       0.00       0.00      50.66      48.82      40.77      89.59        5.63     2.94   0.640
  SC_I-7                   140.00       0.00       0.00      43.89      49.20      47.36      96.56        1.93     1.10   0.690
  SC_I-8                   140.00       0.00       0.00      34.39      49.33      57.20     106.53        0.64     0.44   0.761
  SC_I-9                   140.00       0.00       0.00      50.02      49.10      41.14      90.24        4.80     2.53   0.645
  SC_I-10                  140.00       0.00       0.00      75.12       0.00      65.15      65.15        2.17     0.75   0.465
  SC_I-11                  140.00       0.00       0.00      81.27       0.00      58.93      58.93        3.56     1.06   0.421
  SC_I-12                  140.00       0.00       0.00      76.81       0.00      63.44      63.44        3.47     1.15   0.453
  SC_I-13                  140.00       0.00       0.00      52.34      49.06      38.79      87.85        6.68     3.42   0.628
  SC_I-14                  140.00       0.00       0.00      52.39      49.06      38.75      87.81        6.11     3.12   0.627
  SC_I-15                  140.00       0.00       0.00      51.47      49.08      39.68      88.75        5.64     2.92   0.634
  SC_I-16                  140.00       0.00       0.00      35.39      49.32      56.15     105.47        0.32     0.21   0.753
  SC_I-17                  140.00       0.00       0.00      72.66       0.00      67.64      67.64        0.85     0.31   0.483
  SC_I-20                  140.00       0.00       0.00      45.17      49.18      46.06      95.24        2.86     1.60   0.680
  SC_I-21                  140.00       0.00       0.00      85.58       0.00      54.58      54.58        3.28     0.89   0.390
  SC_I-22                  140.00       0.00       0.00      83.59       0.00      56.59      56.59        2.65     0.75   0.404
  SC_I-23                  140.00       0.00       0.00      48.29      49.13      42.89      92.02        3.99     2.15   0.657
  SC_I-24                  140.00       0.00       0.00      42.51      49.22      48.77      98.00        1.70     0.99   0.700
  SC_I-26                  140.00       0.00       0.00      49.02      49.12      42.16      91.28        5.55     2.96   0.652
  SC_I-27                  140.00       0.00       0.00      27.85      70.11      42.35     112.45        2.68     1.56   0.803
  SC_I-28                  140.00       0.00       0.00      36.62      49.30      54.86     104.16        0.36     0.23   0.744
  SC_I-29                  140.00       0.00       0.00      26.21      70.04      44.17     114.21        3.04     1.86   0.816
  SC_I-30                  140.00       0.00       0.00      24.03      70.27      46.28     116.55        1.21     0.79   0.832
  SC_I-31                  140.00       0.00       0.00      23.79      70.28      46.52     116.80        1.30     0.86   0.834
  SC_I-32                  140.00       0.00       0.00      19.00      70.46      51.63     122.08        0.21     0.16   0.872
  SC_I-33                  140.00       0.00       0.00      26.96      70.14      43.25     113.40        3.51     2.10   0.810
  SC_I-34                  140.00       0.00       0.00      59.04      32.06      49.23      81.29        6.63     3.07   0.581
  SC_I-35                  140.00       0.00       0.00      46.57      49.16      44.64      93.80        2.48     1.36   0.670
  SC_I-36                  140.00       0.00       0.00      32.13      62.83      45.34     108.16        7.23     4.01   0.773
  SC_I-37                  140.00       0.00       0.00      23.60      70.28      46.73     117.01        1.37     0.91   0.836
  SC_I-38                  140.00       0.00       0.00      47.55      49.15      43.64      92.79        4.11     2.23   0.663
  SC_I-39                  140.00       0.00       0.00      41.82      49.23      49.49      98.72        1.38     0.81   0.705
  SC_I-40                  140.00       0.00       0.00      28.93      69.38      41.94     111.32        4.40     2.51   0.795
  SC_I-41                  140.00       0.00       0.00      28.34      70.09      41.84     111.93        4.70     2.70   0.799
  SC_I-42                  140.00       0.00       0.00      22.35      70.33      48.03     118.37        0.73     0.50   0.845
  SC_I-43                  140.00       0.00       0.00      27.93      70.10      42.26     112.36        3.80     2.21   0.803
  SC_I-44                  140.00       0.00       0.00      45.28      49.18      45.95      95.13        3.04     1.70   0.679
  SC_I-45                  140.00       0.00       0.00      46.16      49.17      45.06      94.22        1.78     0.98   0.673
  SC_I-46                  140.00       0.00       0.00      17.44      70.50      53.35     123.86        0.16     0.13   0.885
  SC_I-47                  140.00       0.00       0.00      27.55      70.12      42.65     112.77        4.03     2.37   0.806
  SC_I-48                  140.00       0.00       0.00      21.77      70.35      48.64     119.00        0.91     0.64   0.850
  SC_I-49                  140.00       0.00       0.00      28.46      70.08      41.72     111.80        5.50     3.15   0.799
  SC_I-50                  140.00       0.00       0.00      52.90      49.05      38.23      87.28        6.40     3.25   0.623
  SC_I-51                  140.00       0.00       0.00      22.27      70.34      48.13     118.46        0.57     0.39   0.846
  SC_I-52                  140.00       0.00       0.00      28.46      70.08      41.72     111.80        4.35     2.49   0.799
  SC_I-53                  140.00       0.00       0.00      24.50      70.25      45.79     116.03        1.40     0.90   0.829
  SC_I-54                  140.00       0.00       0.00      52.72      49.06      38.42      87.47        8.35     4.25   0.625
  SC_I-55                  140.00       0.00       0.00      25.01      70.23      45.26     115.49        1.90     1.21   0.825
  SC_I-56                  140.00       0.00       0.00      27.92      70.79      41.56     112.35        3.97     2.29   0.803
  SC_I-57                  140.00       0.00       0.00      27.52      70.12      42.68     112.80        3.80     2.24   0.806
  SC_I-58                  140.00       0.00       0.00      26.24      69.63      44.56     114.18        2.49     1.53   0.816
  SC_I-59                  140.00       0.00       0.00      25.59      70.20      44.66     114.86        2.00     1.24   0.820
  SC_I-60                  140.00       0.00       0.00      66.26      19.58      54.49      74.06        2.17     0.84   0.529
  SC_I-61                  140.00       0.00       0.00      77.12       0.00      63.13      63.13        2.28     0.75   0.451
  SC_I-63                  140.00       0.00       0.00      26.56      70.16      43.66     113.82        2.87     1.74   0.813
  SC_I-64                  140.00       0.00       0.00      24.18      70.26      46.12     116.38        1.24     0.80   0.831
  SC_I-65                  140.00       0.00       0.00      79.14       0.00      61.08      61.08        1.94     0.61   0.436
  SC_I-66                  140.00       0.00       0.00      34.62      49.33      56.95     106.28        0.45     0.31   0.759
  SC_I-67                  140.00       0.00       0.00      26.91      70.15      43.30     113.45        3.12     1.87   0.810
  SC_I-68                  140.00       0.00       0.00      22.81      70.31      47.56     117.87        0.83     0.56   0.842
  SC_I-69                  140.00       0.00       0.00      24.01      79.81      36.36     116.16        4.82     2.81   0.830
  SC_I-71                  140.00       0.00       0.00      72.66       0.00      67.64      67.64        1.71     0.63   0.483
  SC_I-72                  140.00       0.00       0.00      25.44      70.21      44.81     115.02        1.49     0.93   0.822
  SC_I-73                  140.00       0.00       0.00      23.53      70.29      46.79     117.08        1.11     0.74   0.836
  SC_I-74                  140.00       0.00       0.00      24.67      70.24      45.61     115.85        1.32     0.85   0.827
  SC_I-75                  140.00       0.00       0.00      21.94      83.98      34.22     118.21        5.07     2.98   0.844
  SC_I-76                  140.00       0.00       0.00      25.07      69.67      45.77     115.44        1.19     0.76   0.825
  SC_I-77                  140.00       0.00       0.00      25.72      70.20      44.53     114.73        2.30     1.43   0.819
  SC_I-78                  140.00       0.00       0.00      80.62       0.00      59.59      59.59        1.28     0.39   0.426
  SC_I-79                  140.00       0.00       0.00      47.01      49.15      44.19      93.34        2.55     1.39   0.667
  SC_I-80                  140.00       0.00       0.00      40.58      49.25      50.75     100.00        1.10     0.66   0.714
  SC_I-81                  140.00       0.00       0.00      79.37       0.00      60.85      60.85        5.16     1.61   0.435
  SC_I-82                  140.00       0.00       0.00      28.15      74.17      37.79     111.96        6.36     3.47   0.800
  SC_I-83                  140.00       0.00       0.00      83.68       0.00      56.50      56.50        5.71     1.61   0.404
  SC_I-84                  140.00       0.00       0.00      45.29      49.18      45.94      95.12        1.44     0.80   0.679
  SC_I-85                  140.00       0.00       0.00      82.09       0.00      58.10      58.10        1.74     0.51   0.415
  SC_I-86                  140.00       0.00       0.00      47.83      49.14      43.36      92.50        2.18     1.18   0.661
  SC_I-87                  140.00       0.00       0.00      44.02      49.20      47.24      96.44        2.69     1.53   0.689
  SC_I-88                  140.00       0.00       0.00      51.10      49.08      40.05      89.14        5.01     2.60   0.637
  SC_I-89                  140.00       0.00       0.00      39.20      49.27      52.18     101.44        0.47     0.29   0.725
  SC_I-90                  140.00       0.00       0.00      47.25      49.15      43.94      93.09        2.58     1.41   0.665
  SC_I-91                  140.00       0.00       0.00      50.46      49.10      40.69      89.78        3.97     2.08   0.641
  SC_I-92                  140.00       0.00       0.00      51.38      49.08      39.77      88.85        5.48     2.84   0.635
  SC_I-93                  140.00       0.00       0.00      52.24      49.06      38.89      87.96        5.47     2.80   0.628
  SC_I-94                  140.00       0.00       0.00      49.51      49.11      41.66      90.77        3.66     1.94   0.648
  SC_I-95                  140.00       0.00       0.00      47.56      49.15      43.63      92.77        2.55     1.39   0.663
  SC_I-96                  140.00       0.00       0.00      52.44      49.06      38.69      87.75        6.64     3.39   0.627
  SC_I-97                  140.00       0.00       0.00      50.86      49.09      40.29      89.38        4.61     2.40   0.638
  SC_I-98                  140.00       0.00       0.00      58.70       4.78      77.09      81.87        0.26     0.13   0.585
  SC_I-99                  140.00       0.00       0.00      50.69      49.09      40.46      89.55        4.63     2.42   0.640
  SC_I-100                 140.00       0.00       0.00      33.30      54.23      53.32     107.56        1.02     0.71   0.768
  SC_I-101                 140.00       0.00       0.00      48.12      49.14      43.06      92.20        2.77     1.49   0.659
  SC_I-102                 140.00       0.00       0.00      51.64      47.28      41.33      88.61        5.92     3.07   0.633
  SC_I-103                 140.00       0.00       0.00      55.30      31.11      54.02      85.13        4.13     1.98   0.608
  SC_I-104                 140.00       0.00       0.00      44.88      49.19      46.35      95.54        1.93     1.08   0.682
  SC_I-105                 140.00       0.00       0.00      37.34      49.29      54.11     103.40        0.37     0.24   0.739
  SC_I-106                 140.00       0.00       0.00      46.48      49.16      44.73      93.89        4.50     2.48   0.671
  SC_I-107                 140.00       0.00       0.00      85.77       0.00      54.39      54.39        2.19     0.59   0.388
  SC_I-108                 140.00       0.00       0.00      40.86      49.25      50.47      99.71        1.53     0.91   0.712
  SC_I-109                 140.00       0.00       0.00      65.89       0.00      74.54      74.54        1.12     0.49   0.532
  SC_I-110                 140.00       0.00       0.00      52.29      49.06      38.84      87.91        6.00     3.07   0.628
  SC_I-111                 140.00       0.00       0.00      33.87      49.33      57.75     107.09        0.26     0.18   0.765
  SC_I-112                 140.00       0.00       0.00      36.69      49.30      54.79     104.09        0.78     0.51   0.743
  SC_I-113                 140.00       0.00       0.00      36.35      49.30      55.15     104.45        0.71     0.47   0.746
  SC_I-114                 140.00       0.00       0.00      86.11       0.00      54.04      54.04        2.77     0.74   0.386
  SC_I-115                 140.00       0.00       0.00      42.93      49.22      48.34      97.56        1.41     0.82   0.697
  SC_I-117                 140.00       0.00       0.00      23.60      72.62      44.30     116.92        2.95     1.91   0.835
  SC_I-118                 140.00       0.00       0.00      22.97      70.31      47.38     117.69        0.91     0.61   0.841
  SC_I-119                 140.00       0.00       0.00      47.18      49.15      44.02      93.17        6.05     3.30   0.665
  SC_I-120                 140.00       0.00       0.00      23.18      70.30      47.16     117.46        1.01     0.68   0.839
  SC_I-121                 140.00       0.00       0.00      14.33      84.26      42.56     126.81        0.11     0.09   0.906
  SC_I-122                 140.00       0.00       0.00      48.17      49.14      43.02      92.15        1.19     0.64   0.658
  SC_I-123                 140.00       0.00       0.00      61.39       0.00      79.16      79.16        0.63     0.31   0.565
  SC_I-124                 140.00       0.00       0.00      25.88      70.19      44.37     114.56        1.82     1.12   0.818
  SC_I-125                 140.00       0.00       0.00      25.97      70.19      44.27     114.46        2.24     1.38   0.818
  SC_I-126                 140.00       0.00       0.00      66.22      15.22      58.91      74.13        1.49     0.57   0.530
  SC_I-127                 140.00       0.00       0.00      49.17      49.12      41.99      91.11        4.42     2.35   0.651
  SC_I-128                 140.00       0.00       0.00      63.63      14.80      61.96      76.76        1.20     0.49   0.548
  SC_I-129                 140.00       0.00       0.00      58.83       0.00      81.81      81.81        0.48     0.26   0.584
  SC_I-130                 140.00       0.00       0.00       0.00     139.95       0.00     139.95        5.12     3.58   1.000
  SC_I-131                 140.00       0.00       0.00      34.91      56.70      48.73     105.43        3.09     1.67   0.753
  SC_I-132                 140.00       0.00       0.00      31.28      65.87      43.09     108.96        6.57     3.63   0.778
  SC_I-133                 140.00       0.00       0.00      39.27      49.27      52.10     101.37        0.86     0.53   0.724
  SC_I-134                 140.00       0.00       0.00      63.69       0.00      76.80      76.80        0.54     0.25   0.549
  SC_I-135                 140.00       0.00       0.00      32.42      49.35      59.30     108.65        0.14     0.10   0.776
  SC_I-136                 140.00       0.00       0.00      52.33      49.06      38.81      87.87        5.00     2.56   0.628
  SC_I-137                 140.00       0.00       0.00      84.13       0.00      56.05      56.05        2.15     0.60   0.400
  SC_I-138                 140.00       0.00       0.00      40.23      49.25      51.11     100.37        0.95     0.58   0.717
  SC_I-139                 140.00       0.00       0.00      42.44      49.22      48.85      98.07        1.14     0.66   0.701
  SC_I-140                 140.00       0.00       0.00      26.43      70.85      43.09     113.94        4.03     2.43   0.814
  SC_I-141                 140.00       0.00       0.00      87.97       0.00      52.18      52.18        2.86     0.73   0.373
  SC_I-142                 140.00       0.00       0.00      25.66      70.20      44.59     114.79        1.07     0.67   0.820
  SC_I-143                 140.00       0.00       0.00      21.81      70.35      48.60     118.96        0.76     0.53   0.850
  SC_ISD-1                 140.00       0.00       0.00      19.19      70.45      51.42     121.87        0.21     0.17   0.871
  SC_ISD-2                 140.00       0.00       0.00      19.71      70.43      50.85     121.28        0.26     0.20   0.866
  SC_ISD-3                 140.00       0.00       0.00      19.93      70.42      50.61     121.04        0.26     0.20   0.865
  SC_ISD-4                 140.00       0.00       0.00      19.64      70.43      50.93     121.36        0.21     0.16   0.867
  SC_ISD-5                 140.00       0.00       0.00      20.29      70.41      50.23     120.64        0.27     0.20   0.862
  SC_ISD-6                 140.00       0.00       0.00      20.31      70.41      50.21     120.62        0.26     0.19   0.862
  SC_ISD-7                 140.00       0.00       0.00      19.81      70.43      50.75     121.18        0.19     0.14   0.866
  SC_ISD-8                 140.00       0.00       0.00      20.64      70.40      49.85     120.25        0.26     0.19   0.859
  SC_ISD-9                 140.00       0.00       0.00      20.73      70.39      49.76     120.15        0.26     0.19   0.858
  SC_ISD-10                140.00       0.00       0.00      20.09      70.42      50.44     120.86        0.20     0.15   0.863
  SC_ISD-11                140.00       0.00       0.00      20.26      70.41      50.26     120.67        0.21     0.16   0.862
  SC_ISD-12                140.00       0.00       0.00      19.68      70.43      50.89     121.32        0.17     0.12   0.867
  SC_ISD-13                140.00       0.00       0.00      19.65      70.43      50.92     121.35        0.16     0.12   0.867
  SC_ISD-14                140.00       0.00       0.00      20.10      70.42      50.43     120.85        0.20     0.15   0.863
  SC_ISD-15                140.00       0.00       0.00      20.57      70.40      49.92     120.32        0.26     0.19   0.859
  SC_ISD-16                140.00       0.00       0.00      20.61      70.40      49.88     120.28        0.25     0.18   0.859
  SC_ISD-17                140.00       0.00       0.00      20.05      70.42      50.49     120.91        0.20     0.15   0.864
  SC_ISD-18                140.00       0.00       0.00      19.75      70.43      50.82     121.25        0.17     0.13   0.866
  SC_ISD-19                140.00       0.00       0.00      19.61      70.43      50.96     121.40        0.16     0.12   0.867
  SC_ISD-20                140.00       0.00       0.00      20.28      70.41      50.24     120.64        0.16     0.12   0.862
  SC_ISD-21                140.00       0.00       0.00      19.84      70.43      50.72     121.14        0.17     0.13   0.865
  SC_ISD-22                140.00       0.00       0.00      20.82      70.39      49.66     120.05        0.26     0.19   0.857
  SC_ISD-23                140.00       0.00       0.00      20.43      70.40      50.08     120.49        0.22     0.16   0.861
  SC_ISD-24                140.00       0.00       0.00      19.71      70.43      50.86     121.29        0.16     0.12   0.866
  SC_ISD-25                140.00       0.00       0.00      19.74      70.43      50.82     121.25        0.16     0.12   0.866
  SC_ISD-26                140.00       0.00       0.00      19.72      70.43      50.84     121.27        0.16     0.12   0.866
  SC_ISD-27                140.00       0.00       0.00      20.68      70.40      49.81     120.20        0.26     0.19   0.859
  SC_ISD-28                140.00       0.00       0.00      20.24      70.41      50.28     120.69        0.22     0.17   0.862
  SC_ISD-29                140.00       0.00       0.00      18.89      70.46      51.75     122.21        0.11     0.09   0.873
  SC_ISD-30                140.00       0.00       0.00      19.24      70.45      51.37     121.82        0.11     0.08   0.870
  SC_ISD-31                140.00       0.00       0.00      19.25      70.45      51.36     121.81        0.12     0.10   0.870
  SC_ISD-32                140.00       0.00       0.00      19.50      70.44      51.08     121.52        0.16     0.12   0.868
  SC_ISD-33                140.00       0.00       0.00      19.53      70.44      51.05     121.48        0.16     0.12   0.868
  SC_ISD-34                140.00       0.00       0.00      19.19      70.45      51.42     121.87        0.13     0.10   0.870
  SC_ISD-35                140.00       0.00       0.00      19.76      70.43      50.80     121.23        0.16     0.12   0.866
  SC_ISD-36                140.00       0.00       0.00      20.13      70.42      50.40     120.82        0.18     0.13   0.863
  SC_ISD-37                140.00       0.00       0.00      19.54      70.44      51.04     121.48        0.14     0.10   0.868
  SC_ISD-38                140.00       0.00       0.00      20.09      70.42      50.44     120.86        0.17     0.13   0.863
  SC_ISD-39                140.00       0.00       0.00      19.38      70.44      51.21     121.65        0.13     0.10   0.869
  SC_ISD-40                140.00       0.00       0.00      20.04      70.42      50.50     120.91        0.16     0.12   0.864
  SC_ISD-41                140.00       0.00       0.00      19.37      70.44      51.22     121.66        0.14     0.11   0.869
  SC_ISD-42                140.00       0.00       0.00      19.40      70.44      51.19     121.63        0.16     0.12   0.869
  SC_ISD-43                140.00       0.00       0.00      19.16      70.45      51.45     121.90        0.15     0.12   0.871
  SC_ISD-44                140.00       0.00       0.00      18.71      70.47      51.94     122.41        0.13     0.10   0.874
  SC_ISD-45                140.00       0.00       0.00      19.26      70.45      51.34     121.79        0.18     0.14   0.870
  SC_ISD-46                140.00       0.00       0.00      18.97      70.46      51.66     122.12        0.16     0.12   0.872
  SC_ISD-47                140.00       0.00       0.00      18.75      70.46      51.90     122.37        0.14     0.11   0.874
  SC_ISD-48                140.00       0.00       0.00      20.33      70.41      50.18     120.59        0.29     0.21   0.861
  SC_ISD-49                140.00       0.00       0.00      20.33      70.41      50.19     120.59        0.29     0.21   0.861
  SC_ISD-50                140.00       0.00       0.00      19.68      70.43      50.89     121.33        0.18     0.14   0.867
  SC_ISD-51                140.00       0.00       0.00      19.86      70.43      50.70     121.12        0.22     0.17   0.865
  SC_ISD-52                140.00       0.00       0.00      19.80      70.43      50.76     121.19        0.22     0.16   0.866
  SC_ISD-53                140.00       0.00       0.00      19.37      70.44      51.23     121.68        0.15     0.12   0.869
  SC_ISD-54                140.00       0.00       0.00      19.31      70.44      51.29     121.73        0.14     0.11   0.870
  SC_ISD-55                140.00       0.00       0.00      19.60      70.43      50.98     121.41        0.15     0.12   0.867
  SC_ISD-56                140.00       0.00       0.00      19.85      70.43      50.71     121.13        0.15     0.11   0.865
  SC_ISD-57                140.00       0.00       0.00      19.24      70.45      51.37     121.82        0.15     0.12   0.870
  SC_ISD-58                140.00       0.00       0.00      19.81      70.43      50.75     121.18        0.21     0.16   0.866
  SC_ISD-59                140.00       0.00       0.00      19.67      70.43      50.90     121.33        0.23     0.17   0.867
  SC_ISD-60                140.00       0.00       0.00      18.54      70.47      52.14     122.61        0.15     0.12   0.876
  SC_ISD-61                140.00       0.00       0.00      18.43      70.48      52.26     122.73        0.16     0.12   0.877
  SC_ISD-62                140.00       0.00       0.00      18.32      70.34      52.52     122.86        0.16     0.13   0.878
  SC_ISD-63                140.00       0.00       0.00      18.05      70.49      52.68     123.17        0.15     0.12   0.880
  SC_ISD-64                140.00       0.00       0.00      18.16      70.48      52.56     123.04        0.15     0.12   0.879
  SC_ISD-65                140.00       0.00       0.00      22.94      69.34      48.42     117.76        0.82     0.56   0.841
  SC_ISD-66                140.00       0.00       0.00      68.55       0.00      71.83      71.83        0.85     0.34   0.513
  SC_ISD-67                140.00       0.00       0.00      36.35      49.30      55.14     104.45        0.82     0.54   0.746
  SC_ISD-68                140.00       0.00       0.00      32.31      49.35      59.42     108.77        0.40     0.30   0.777
  SC_ISD-69                140.00       0.00       0.00      39.67      49.26      51.70     100.96        0.67     0.41   0.721
  SC_ISD-70                140.00       0.00       0.00      31.55      49.36      60.24     109.60        0.35     0.26   0.783
  SC_ISD-71                140.00       0.00       0.00      32.99      49.34      58.69     108.03        0.40     0.29   0.772
  SC_ISD-72                140.00       0.00       0.00      32.55      49.35      59.16     108.51        0.33     0.24   0.775
  SC_ISD-73                140.00       0.00       0.00      33.07      49.34      58.61     107.95        0.29     0.21   0.771
  SC_ISD-74                140.00       0.00       0.00      32.97      49.34      58.71     108.06        0.23     0.17   0.772
  SC_ISD-75                140.00       0.00       0.00      33.19      49.34      58.48     107.82        0.21     0.15   0.770
  SC_ISD-76                140.00       0.00       0.00      33.19      49.34      58.48     107.82        0.18     0.13   0.770
  SC_ISD-77                140.00       0.00       0.00      34.26      49.33      57.33     106.66        0.23     0.16   0.762
  SC_ISD-78                140.00       0.00       0.00      34.61      49.33      56.97     106.29        0.23     0.16   0.759
  SC_ISD-79                140.00       0.00       0.00      33.32      49.34      58.34     107.68        0.15     0.11   0.769
  SC_ISD-80                140.00       0.00       0.00      33.66      49.34      57.98     107.31        0.16     0.12   0.767
  SC_ISD-81                140.00       0.00       0.00      33.61      49.34      58.02     107.36        0.17     0.12   0.767
  SC_ISD-82                140.00       0.00       0.00      32.89      49.34      58.80     108.14        0.14     0.10   0.772
  SC_ISD-83                140.00       0.00       0.00      32.13      49.35      59.61     108.96        0.13     0.09   0.778
  SC_ISD-84                140.00       0.00       0.00      32.27      49.35      59.46     108.81        0.13     0.10   0.777
  SC_ISD-85                140.00       0.00       0.00      32.64      49.35      59.06     108.40        0.15     0.11   0.774
  SC_ISD-86                140.00       0.00       0.00      33.43      49.34      58.22     107.56        0.15     0.11   0.768
  SC_ISD-87                140.00       0.00       0.00      35.17      49.32      56.38     105.70        0.14     0.10   0.755
  SC_ISD-88                140.00       0.00       0.00      32.89      49.34      58.79     108.14        0.15     0.11   0.772
  SC_ISD-89                140.00       0.00       0.00      33.71      49.34      57.92     107.26        0.14     0.10   0.766
  SC_ISD-90                140.00       0.00       0.00      32.68      49.35      59.02     108.36        0.20     0.15   0.774
  SC_ISD-91                140.00       0.00       0.00      32.51      49.35      59.20     108.55        0.21     0.15   0.775
  SC_ISD-92                140.00       0.00       0.00      31.32      49.36      60.48     109.84        0.15     0.12   0.785
  SC_ISD-93                140.00       0.00       0.00      30.90      49.36      60.93     110.29        0.14     0.11   0.788
  SC_ISD-94                140.00       0.00       0.00      30.80      49.36      61.05     110.41        0.14     0.11   0.789
  SC_ISD-95                140.00       0.00       0.00      30.96      49.36      60.87     110.23        0.15     0.12   0.787
  SC_ISD-96                140.00       0.00       0.00      30.77      49.36      61.09     110.45        0.15     0.11   0.789
  SC_ISD-97                140.00       0.00       0.00      30.76      49.36      61.10     110.46        0.15     0.11   0.789
  SC_ISD-98                140.00       0.00       0.00      30.74      49.36      61.11     110.47        0.15     0.11   0.789
  SC_ISD-99                140.00       0.00       0.00      30.99      49.36      60.83     110.19        0.16     0.12   0.787
  SC_ISD-100               140.00       0.00       0.00      31.05      49.36      60.77     110.13        0.16     0.12   0.787
  SC_ISD-101               140.00       0.00       0.00      32.25      49.35      59.49     108.84        0.22     0.16   0.777
  SC_ISD-102               140.00       0.00       0.00      32.19      49.35      59.54     108.89        0.21     0.16   0.778
  SC_ISD-103               140.00       0.00       0.00      31.02      49.36      60.81     110.17        0.14     0.11   0.787
  SC_ISD-104               140.00       0.00       0.00      31.19      49.36      60.62     109.98        0.15     0.11   0.786
  SC_ISD-105               140.00       0.00       0.00      31.40      49.36      60.40     109.76        0.15     0.12   0.784
  SC_ISD-106               140.00       0.00       0.00      32.91      49.34      58.78     108.12        0.23     0.16   0.772
  SC_ISD-107               140.00       0.00       0.00      33.21      49.34      58.45     107.80        0.22     0.16   0.770
  SC_ISD-108               140.00       0.00       0.00      54.32       0.00      86.51      86.51        0.12     0.07   0.618
  SC_ISD-109               140.00       0.00       0.00      83.82       0.00      56.35      56.35        3.00     0.84   0.403
  SC_ISD-110               140.00       0.00       0.00      39.52      35.68      65.74     101.42        0.17     0.11   0.724
  SC_ISD-111               140.00       0.00       0.00      44.89      21.85      74.17      96.02        0.15     0.10   0.686
  SC_ISD-112               140.00       0.00       0.00      33.11      50.88      56.97     107.85        0.19     0.13   0.770
  SC_ISD-113               140.00       0.00       0.00      22.70      60.04      58.31     118.35        0.15     0.11   0.845
  SC_ISD-114               140.00       0.00       0.00      21.24      65.38      54.40     119.78        0.17     0.13   0.856
  SC_ISD-115               140.00       0.00       0.00      20.58      68.87      51.51     120.38        0.21     0.15   0.860
  SC_ISD-116               140.00       0.00       0.00      20.13      70.14      50.69     120.83        0.20     0.15   0.863
  SC_ISD-117               140.00       0.00       0.00      20.71      70.53      49.64     120.17        0.25     0.18   0.858
  SC_ISD-118               140.00       0.00       0.00      20.70      70.67      49.50     120.17        0.25     0.18   0.858
  SC_ISD-119               140.00       0.00       0.00      20.41      70.54      49.96     120.50        0.21     0.16   0.861
  SC_ISD-120               140.00       0.00       0.00      20.38      70.41      50.13     120.54        0.20     0.15   0.861
  SC_ISD-121               140.00       0.00       0.00      20.99      70.38      49.48     119.86        0.26     0.19   0.856
  SC_ISD-122               140.00       0.00       0.00      21.00      70.38      49.47     119.85        0.25     0.18   0.856
  SC_ISD-123               140.00       0.00       0.00      20.31      70.41      50.21     120.62        0.19     0.14   0.862
  SC_ISD-124               140.00       0.00       0.00      20.41      70.41      50.10     120.50        0.20     0.15   0.861
  SC_ISD-125               140.00       0.00       0.00      19.99      70.42      50.55     120.97        0.17     0.13   0.864
  SC_ISD-126               140.00       0.00       0.00      19.87      70.42      50.68     121.11        0.16     0.12   0.865
  SC_ISD-127               140.00       0.00       0.00      20.32      70.41      50.20     120.61        0.20     0.15   0.861
  SC_ISD-128               140.00       0.00       0.00      21.31      70.37      49.13     119.51        0.31     0.22   0.854
  SC_ISD-129               140.00       0.00       0.00      20.96      70.38      49.51     119.89        0.26     0.19   0.856
  SC_ISD-130               140.00       0.00       0.00      19.94      70.42      50.61     121.03        0.16     0.12   0.865
  SC_ISD-131               140.00       0.00       0.00      20.36      70.41      50.16     120.56        0.20     0.15   0.861
  SC_ISD-132               140.00       0.00       0.00      20.33      70.41      50.18     120.59        0.19     0.14   0.861
  SC_ISD-133               140.00       0.00       0.00      20.49      70.40      50.01     120.41        0.20     0.14   0.860
  SC_ISD-134               140.00       0.00       0.00      20.23      70.41      50.30     120.71        0.17     0.13   0.862
  SC_ISD-135               140.00       0.00       0.00      20.16      70.41      50.37     120.78        0.17     0.13   0.863
  SC_ISD-136               140.00       0.00       0.00      20.45      70.40      50.05     120.46        0.19     0.14   0.860
  SC_ISD-137               140.00       0.00       0.00      20.54      70.40      49.96     120.36        0.20     0.15   0.860
  SC_ISD-138               140.00       0.00       0.00      20.57      70.40      49.93     120.33        0.21     0.15   0.859
  SC_ISD-139               140.00       0.00       0.00      19.89      70.42      50.66     121.08        0.16     0.12   0.865
  SC_ISD-140               140.00       0.00       0.00      19.72      70.43      50.85     121.28        0.15     0.11   0.866
  SC_ISD-141               140.00       0.00       0.00      20.31      70.41      50.20     120.61        0.21     0.15   0.862
  SC_ISD-142               140.00       0.00       0.00      20.82      70.39      49.66     120.05        0.26     0.19   0.858
  SC_ISD-143               140.00       0.00       0.00      20.72      70.39      49.77     120.16        0.26     0.19   0.858
  SC_ISD-144               140.00       0.00       0.00      20.20      70.41      50.33     120.74        0.21     0.16   0.862
  SC_ISD-145               140.00       0.00       0.00      20.12      70.42      50.42     120.83        0.21     0.15   0.863
  SC_ISD-146               140.00       0.00       0.00      20.03      70.42      50.51     120.93        0.20     0.15   0.864
  SC_ISD-147               140.00       0.00       0.00      20.56      70.40      49.94     120.34        0.27     0.19   0.860
  SC_ISD-148               140.00       0.00       0.00      20.56      70.40      49.94     120.34        0.27     0.20   0.860
  SC_ISD-149               140.00       0.00       0.00      19.80      70.43      50.76     121.19        0.20     0.15   0.866
  SC_ISD-150               140.00       0.00       0.00      19.83      70.43      50.72     121.15        0.20     0.15   0.865
  SC_ISD-151               140.00       0.00       0.00      22.14      70.34      48.25     118.59        0.51     0.35   0.847
  SC_ISD-152               140.00       0.00       0.00      42.20      49.23      49.10      98.33        0.78     0.46   0.702
  SC_ISD-153               140.00       0.00       0.00      38.94      49.27      52.45     101.73        0.56     0.35   0.727
  SC_ISD-154               140.00       0.00       0.00      34.71      49.32      56.86     106.19        0.25     0.17   0.758
  SC_ISD-155               140.00       0.00       0.00       0.00     140.55       0.00     140.55        0.36     0.29   1.004
  SC_ISD-156               140.00       0.00       0.00       0.67     135.82       4.17     139.99        0.31     0.25   1.000
  SC_ISD-157               140.00       0.00       0.00       3.08     121.66      16.09     137.75        0.30     0.25   0.984
  SC_ISD-158               140.00       0.00       0.00       5.76     108.18      26.95     135.13        0.34     0.27   0.965
  SC_ISD-159               140.00       0.00       0.00       3.94     117.04      19.90     136.95        0.30     0.25   0.978
  SC_ISD-160               140.00       0.00       0.00      16.04      81.12      43.86     124.98        0.20     0.16   0.893
  SC_ISD-161               140.00       0.00       0.00      17.18      77.05      46.81     123.86        0.17     0.14   0.885
  SC_ISD-162               140.00       0.00       0.00      18.88      74.21      47.86     122.06        0.24     0.18   0.872
  SC_ISD-163               140.00       0.00       0.00      19.89      72.23      48.79     121.02        0.26     0.19   0.864
  SC_ISD-164               140.00       0.00       0.00      19.31      70.86      50.86     121.72        0.16     0.12   0.869
  SC_ISD-165               140.00       0.00       0.00      19.42      71.14      50.44     121.58        0.17     0.13   0.868
  SC_ISD-166               140.00       0.00       0.00      19.99      70.56      50.41     120.97        0.20     0.15   0.864
  SC_ISD-167               140.00       0.00       0.00      19.96      70.42      50.59     121.01        0.19     0.14   0.864
  SC_ISD-168               140.00       0.00       0.00      22.61      70.32      47.76     118.08        0.51     0.35   0.843
  SC_ISD-169               140.00       0.00       0.00      23.18      70.30      47.17     117.47        0.59     0.40   0.839
  SC_ISD-170               140.00       0.00       0.00      20.98      70.38      49.49     119.87        0.31     0.22   0.856
  SC_ISD-171               140.00       0.00       0.00      20.05      70.42      50.49     120.91        0.25     0.19   0.864
  SC_ISD-172               140.00       0.00       0.00      20.00      70.42      50.54     120.96        0.21     0.16   0.864
  SC_ISD-173               140.00       0.00       0.00      19.95      70.42      50.60     121.02        0.20     0.15   0.864
  SC_ISD-174               140.00       0.00       0.00      19.86      70.43      50.69     121.12        0.20     0.15   0.865
  SC_ISD-175               140.00       0.00       0.00      21.18      70.38      49.27     119.65        0.36     0.25   0.855
  SC_ISD-176               140.00       0.00       0.00      21.21      70.38      49.24     119.61        0.35     0.25   0.854
  SC_ISD-177               140.00       0.00       0.00      20.10      70.42      50.43     120.85        0.22     0.16   0.863
  SC_ISD-178               140.00       0.00       0.00      19.89      70.42      50.66     121.09        0.22     0.17   0.865
  SC_ISD-179               140.00       0.00       0.00      19.97      70.42      50.57     120.99        0.21     0.15   0.864
  SC_ISD-180               140.00       0.00       0.00      19.77      70.43      50.79     121.22        0.19     0.15   0.866
  SC_ISD-181               140.00       0.00       0.00      20.30      70.41      50.21     120.62        0.26     0.19   0.862
  SC_ISD-182               140.00       0.00       0.00      20.22      70.41      50.30     120.71        0.25     0.19   0.862
  SC_ISD-183               140.00       0.00       0.00      19.63      70.43      50.94     121.37        0.19     0.15   0.867
  SC_ISD-184               140.00       0.00       0.00      20.65      70.40      49.84     120.24        0.30     0.22   0.859
  SC_ISD-185               140.00       0.00       0.00      20.66      70.40      49.83     120.23        0.30     0.22   0.859
  SC_ISD-186               140.00       0.00       0.00      19.72      70.43      50.84     121.27        0.21     0.16   0.866
  SC_ISD-187               140.00       0.00       0.00      19.80      70.43      50.75     121.18        0.23     0.17   0.866
  SC_ISD-188               140.00       0.00       0.00      20.31      70.41      50.20     120.61        0.31     0.23   0.862
  SC_ISD-189               140.00       0.00       0.00      20.06      70.42      50.47     120.89        0.32     0.24   0.864
  SC_ISD-190               140.00       0.00       0.00      19.10      70.45      51.51     121.97        0.23     0.18   0.871
  SC_ISD-191               140.00       0.00       0.00      19.29      70.45      51.32     121.76        0.26     0.20   0.870
  SC_ISD-192               140.00       0.00       0.00      19.91      70.42      50.64     121.07        0.34     0.25   0.865
  SC_ISD-193               140.00       0.00       0.00      20.50      70.40      50.00     120.40        0.41     0.30   0.860
  SC_ISD-194               140.00       0.00       0.00      19.68      70.43      50.89     121.33        0.29     0.22   0.867
  SC_ISD-195               140.00       0.00       0.00      20.02      70.42      50.52     120.94        0.32     0.24   0.864
  SC_ISD-196               140.00       0.00       0.00      20.75      70.39      49.73     120.13        0.40     0.29   0.858
  SC_ISD-197               140.00       0.00       0.00      20.38      70.41      50.14     120.54        0.30     0.22   0.861
  SC_ISD-198               140.00       0.00       0.00      20.63      70.40      49.86     120.26        0.26     0.19   0.859
  SC_ISD-199               140.00       0.00       0.00      22.77      70.32      47.60     117.91        0.49     0.33   0.842
  SC_ISD-200               140.00       0.00       0.00      22.58      70.32      47.79     118.12        0.44     0.30   0.844
  SC_ISD-201               140.00       0.00       0.00      20.14      70.42      50.39     120.80        0.18     0.13   0.863
  SC_ISD-202               140.00       0.00       0.00      19.92      70.42      50.63     121.05        0.17     0.13   0.865
  SC_ISD-203               140.00       0.00       0.00      20.10      70.42      50.43     120.85        0.19     0.14   0.863
  SC_ISD-204               140.00       0.00       0.00      20.33      70.41      50.18     120.59        0.21     0.16   0.861
  SC_ISD-205               140.00       0.00       0.00      20.29      70.41      50.22     120.63        0.21     0.15   0.862
  SC_ISD-206               140.00       0.00       0.00      19.72      70.43      50.85     121.28        0.16     0.12   0.866
  SC_ISD-207               140.00       0.00       0.00      19.61      70.43      50.96     121.39        0.15     0.11   0.867
  SC_ISD-208               140.00       0.00       0.00      19.99      70.42      50.55     120.97        0.17     0.13   0.864
  SC_ISD-209               140.00       0.00       0.00      20.43      70.40      50.07     120.48        0.21     0.16   0.861
  SC_ISD-210               140.00       0.00       0.00      20.26      70.41      50.26     120.67        0.19     0.14   0.862
  SC_ISD-211               140.00       0.00       0.00      19.89      70.42      50.66     121.09        0.15     0.12   0.865
  SC_ISD-212               140.00       0.00       0.00      20.44      70.40      50.07     120.47        0.19     0.14   0.861
  SC_ISD-213               140.00       0.00       0.00      21.16      70.38      49.30     119.67        0.24     0.17   0.855
  SC_ISD-215               140.00       0.00       0.00      19.49      70.44      51.09     121.53        0.33     0.25   0.868
  SC_ISD-216               140.00       0.00       0.00      19.08      70.45      51.54     121.99        0.31     0.24   0.871
  SC_ISD-217               140.00       0.00       0.00      18.37      70.48      52.33     122.81        0.21     0.16   0.877
  SC_ISD-218               140.00       0.00       0.00      19.07      70.45      51.55     122.01        0.26     0.20   0.871
  SC_ISD-219               140.00       0.00       0.00      20.39      70.41      50.12     120.53        0.36     0.27   0.861
  SC_ISD-220               140.00       0.00       0.00      20.73      70.39      49.76     120.15        0.37     0.27   0.858
  SC_ISD-221               140.00       0.00       0.00      20.50      70.40      50.00     120.41        0.31     0.23   0.860
  SC_ISD-222               140.00       0.00       0.00      20.04      70.42      50.50     120.92        0.23     0.17   0.864
  SC_ISD-223               140.00       0.00       0.00      19.19      70.45      51.42     121.87        0.16     0.12   0.870
  SC_ISD-224               140.00       0.00       0.00      18.87      70.46      51.78     122.24        0.15     0.11   0.873
  SC_ISD-225               140.00       0.00       0.00      19.14      70.45      51.47     121.93        0.16     0.12   0.871
  SC_ISD-226               140.00       0.00       0.00      20.39      70.41      50.12     120.53        0.30     0.22   0.861
  SC_ISD-227               140.00       0.00       0.00      20.75      70.39      49.73     120.13        0.33     0.24   0.858
  SC_ISD-228               140.00       0.00       0.00      19.78      70.43      50.78     121.21        0.20     0.15   0.866
  SC_ISD-229               140.00       0.00       0.00      19.01      70.46      51.62     122.08        0.14     0.11   0.872
  SC_ISD-230               140.00       0.00       0.00      19.99      70.42      50.55     120.97        0.22     0.17   0.864
  SC_ISD-231               140.00       0.00       0.00      20.02      70.42      50.52     120.94        0.23     0.17   0.864
  SC_ISD-232               140.00       0.00       0.00      20.16      70.41      50.37     120.79        0.24     0.18   0.863
  SC_ISD-233               140.00       0.00       0.00      19.39      70.44      51.20     121.64        0.16     0.12   0.869
  SC_ISD-234               140.00       0.00       0.00      20.66      70.40      49.83     120.23        0.30     0.22   0.859
  SC_ISD-235               140.00       0.00       0.00      20.81      70.39      49.66     120.06        0.31     0.22   0.858
  SC_ISD-236               140.00       0.00       0.00      20.42      70.40      50.08     120.49        0.24     0.18   0.861
  SC_ISD-237               140.00       0.00       0.00      20.65      70.40      49.84     120.24        0.25     0.18   0.859
  SC_ISD-238               140.00       0.00       0.00      19.44      70.44      51.15     121.59        0.15     0.12   0.869
  SC_ISD-239               140.00       0.00       0.00      21.50      70.36      48.93     119.29        0.32     0.23   0.852
  SC_ISD-240               140.00       0.00       0.00      21.31      70.37      49.14     119.51        0.30     0.21   0.854
  SC_ISD-241               140.00       0.00       0.00      20.87      70.39      49.61     120.00        0.30     0.21   0.857
  SC_ISD-242               140.00       0.00       0.00      20.70      70.39      49.78     120.18        0.30     0.22   0.858
  SC_ISD-243               140.00       0.00       0.00      20.62      70.40      49.87     120.27        0.26     0.19   0.859
  SC_ISD-244               140.00       0.00       0.00      20.37      70.41      50.14     120.55        0.20     0.15   0.861
  SC_ISD-245               140.00       0.00       0.00      21.40      70.37      49.04     119.41        0.32     0.23   0.853
  SC_ISD-246               140.00       0.00       0.00      20.37      70.41      50.14     120.55        0.26     0.19   0.861
  SC_ISD-247               140.00       0.00       0.00      21.54      70.36      48.89     119.26        0.48     0.34   0.852
  SC_ISD-248               140.00       0.00       0.00      19.64      70.43      50.93     121.37        0.22     0.17   0.867
  SC_ISD-249               140.00       0.00       0.00      20.76      70.39      49.73     120.12        0.38     0.28   0.858
  SC_ISD-250               140.00       0.00       0.00      19.23      70.45      51.38     121.83        0.18     0.14   0.870
  SC_ISD-251               140.00       0.00       0.00      19.81      70.43      50.74     121.17        0.24     0.18   0.866
  SC_ISD-252               140.00       0.00       0.00      20.97      70.38      49.50     119.88        0.37     0.26   0.856
  SC_ISD-253               140.00       0.00       0.00      22.91      70.86      46.87     117.74        0.66     0.44   0.841
  SC_ISD-254               140.00       0.00       0.00      20.35      72.90      47.57     120.47        0.32     0.23   0.860
  SC_ISD-255               140.00       0.00       0.00      22.50      70.60      47.59     118.19        0.53     0.37   0.844
  SC_ISD-256               140.00       0.00       0.00      24.30      67.08      49.28     116.36        0.62     0.41   0.831
  SC_ISD-257               140.00       0.00       0.00      50.60      30.01      59.95      89.96        0.58     0.30   0.643
  SC_ISD-258               140.00       0.00       0.00      39.32      49.27      52.06     101.32        0.64     0.39   0.724
  SC_ISD-259               140.00       0.00       0.00      38.55      49.28      52.85     102.13        0.61     0.38   0.729
  SC_ISD-260               140.00       0.00       0.00      37.79      49.29      53.64     102.93        0.54     0.34   0.735
  SC_ISD-261               140.00       0.00       0.00      35.25      49.32      56.30     105.61        0.29     0.19   0.754
  SC_ISD-262               140.00       0.00       0.00      32.82      49.35      58.87     108.21        0.15     0.11   0.773
  SC_ISD-263               140.00       0.00       0.00      31.31      49.36      60.49     109.85        0.09     0.07   0.785
  SC_ISD-264               140.00       0.00       0.00      32.97      49.34      58.71     108.06        0.15     0.11   0.772
  SC_ISD-265               140.00       0.00       0.00      39.20      49.27      52.18     101.45        0.61     0.37   0.725
  SC_ISD-266               140.00       0.00       0.00      39.62      49.26      51.74     101.00        0.61     0.37   0.721
  SC_ISD-267               140.00       0.00       0.00      41.64      49.24      49.66      98.90        0.94     0.56   0.706
  SC_ISD-268               140.00       0.00       0.00      43.68      49.21      47.58      96.79        1.43     0.82   0.691
  SC_ISD-269               140.00       0.00       0.00      41.32      49.24      49.99      99.23        0.98     0.58   0.709
  SC_ISD-270               140.00       0.00       0.00      36.70      49.30      54.78     104.08        0.36     0.23   0.743
  SC_ISD-271               140.00       0.00       0.00      37.75      49.29      53.68     102.97        0.42     0.27   0.735
  SC_ISD-272               140.00       0.00       0.00      38.03      49.28      53.39     102.67        0.35     0.22   0.733
  SC_ISD-273               140.00       0.00       0.00      19.07      69.48      52.57     122.05        0.15     0.11   0.872
  SC_ISD-274               140.00       0.00       0.00      19.32      67.38      54.48     121.86        0.11     0.09   0.870
  SC_ISD-275               140.00       0.00       0.00      22.49      60.32      58.24     118.57        0.15     0.12   0.847
  SC_ISD-276               140.00       0.00       0.00      33.58      47.51      59.94     107.45        0.14     0.10   0.768
  SC_ISD-277               140.00       0.00       0.00      41.78      29.62      69.54      99.16        0.13     0.09   0.708
  SC_ISD-278               140.00       0.00       0.00      53.46       5.33      81.96      87.29        0.12     0.07   0.624
  SC_ISD-279               140.00       0.00       0.00      56.32       0.00      84.42      84.42        0.12     0.07   0.603
  SC_ISD-280               140.00       0.00       0.00      56.24       0.00      84.51      84.51        0.11     0.07   0.604
  SC_ISD-281               140.00       0.00       0.00      33.33      49.34      58.32     107.66        0.14     0.10   0.769
  SC_ISD-282               140.00       0.00       0.00      33.71      49.34      57.92     107.25        0.15     0.10   0.766
  SC_ISD-283               140.00       0.00       0.00      32.85      49.34      58.84     108.18        0.12     0.08   0.773
  SC_ISD-285               140.00       0.00       0.00      35.22      49.32      56.33     105.65        0.23     0.15   0.755
  SC_ISD-286               140.00       0.00       0.00      35.27      49.32      56.27     105.59        0.25     0.17   0.754
  SC_ISD-287               140.00       0.00       0.00      35.31      49.32      56.23     105.54        0.24     0.16   0.754
  SC_ISD-288               140.00       0.00       0.00      33.28      49.34      58.38     107.72        0.14     0.10   0.769
  SC_ISD-289               140.00       0.00       0.00      32.87      49.34      58.82     108.16        0.13     0.09   0.773
  SC_ISD-290               140.00       0.00       0.00      33.06      49.34      58.62     107.96        0.14     0.10   0.771
  SC_ISD-291               140.00       0.00       0.00      33.51      49.34      58.14     107.47        0.15     0.11   0.768
  SC_ISD-292               140.00       0.00       0.00      33.17      49.34      58.50     107.84        0.14     0.10   0.770
  SC_ISD-293               140.00       0.00       0.00      33.14      49.34      58.53     107.88        0.14     0.10   0.771
  SC_ISD-294               140.00       0.00       0.00      34.89      49.32      56.67     105.99        0.20     0.14   0.757
  SC_ISD-295               140.00       0.00       0.00      35.74      49.31      55.77     105.09        0.23     0.16   0.751
  SC_ISD-296               140.00       0.00       0.00      35.42      49.32      56.12     105.43        0.21     0.14   0.753
  SC_ISD-297               140.00       0.00       0.00      35.33      49.32      56.21     105.53        0.23     0.15   0.754
  SC_ISD-298               140.00       0.00       0.00      33.78      49.33      57.84     107.18        0.16     0.11   0.766
  SC_ISD-299               140.00       0.00       0.00      33.22      49.34      58.45     107.79        0.14     0.10   0.770
  SC_ISD-300               140.00       0.00       0.00      32.96      49.34      58.72     108.06        0.14     0.10   0.772
  SC_ISD-301               140.00       0.00       0.00      32.96      49.34      58.72     108.06        0.14     0.10   0.772
  SC_ISD-302               140.00       0.00       0.00      33.75      49.34      57.88     107.22        0.18     0.13   0.766
  SC_ISD-303               140.00       0.00       0.00      32.70      49.35      59.00     108.35        0.14     0.10   0.774
  SC_ISD-304               140.00       0.00       0.00      33.33      49.34      58.32     107.66        0.19     0.13   0.769
  SC_ISD-305               140.00       0.00       0.00      32.19      49.35      59.54     108.89        0.13     0.10   0.778
  SC_ISD-306               140.00       0.00       0.00      32.64      49.35      59.06     108.40        0.16     0.12   0.774
  SC_ISD-307               140.00       0.00       0.00      30.57      49.36      61.30     110.66        0.09     0.07   0.790
  SC_ISD-308               140.00       0.00       0.00      33.19      49.34      58.48     107.82        0.18     0.13   0.770
  SC_ISD-309               140.00       0.00       0.00      34.01      49.33      57.61     106.94        0.23     0.16   0.764
  SC_ISD-310               140.00       0.00       0.00      33.30      49.34      58.36     107.70        0.18     0.13   0.769
  SC_ISD-311               140.00       0.00       0.00      33.55      49.43      58.10     107.52        0.19     0.13   0.768
  SC_ISD-312               140.00       0.00       0.00      33.58      49.34      58.06     107.40        0.19     0.14   0.767
  SC_ISD-313               140.00       0.00       0.00      33.45      49.34      58.20     107.53        0.18     0.13   0.768
  SC_ISD-314               140.00       0.00       0.00      33.39      49.34      58.26     107.60        0.17     0.12   0.769
  SC_ISD-315               140.00       0.00       0.00      33.33      49.34      58.33     107.67        0.17     0.12   0.769
[...]
  C_1114-C-112                1.89      1.91      1.89      2.03         1.89
  C_1115-C-112                1.89      1.89      1.97      0.01         0.01
  C_1116-C-112                1.97      1.97      1.98      1.15         0.91
  C_1117-C-112                1.97      1.98      1.97      2.05         1.96
  C_1118-C-112                1.96      1.97      1.99      0.03         0.08
  C_1119-C-112                1.99      1.99      2.00      1.34         0.88
  C_1120-C-112                2.00      2.00      2.01      1.57         1.16
  C_1121-C-112                2.01      2.01      2.01      1.85         1.68
  C_1122-C-112                2.01      2.01      2.04      0.01         0.01
  C_1123-C-112                2.04      2.04      2.05      0.65         0.48
  C_1124-C-112                2.04      2.05      2.04      1.67         1.46
  C_1125-C-112                2.04      2.04      2.05      1.76         1.48
  C_1126-C-112                2.05      2.05      2.06      0.88         0.80
  C_1127-C-112                2.06      2.06      2.07      1.37         1.15
  C_1128-C-112                2.05      2.07      2.05      2.20         2.05
  C_1129-C-112                2.05      2.05      2.07      1.08         0.99
  C_1130-C-112                2.04      2.07      2.04      2.18         2.04
  C_1131-C-112                2.01      2.04      2.01      3.03         2.01
  C_1132-C-112                2.01      2.01      2.10      0.01         0.01
  C_1133-C-112                2.11      2.11      2.12      1.55         1.37
  C_1134-C-112                2.12      2.12      2.13      1.75         1.62
  C_1135-C-112                2.10      2.10      2.11      1.44         1.31
  C_1136-C-112                2.11      2.13      2.11      3.03         2.11
  C_1137-C-112                2.11      2.11      2.13      1.79         1.77
  C_1138-C-112                2.10      2.13      2.10      3.07         2.10
  C_1139-C-112                1.79      1.79      2.10      0.01         0.01
  C_1140-C-112                1.64      1.79      1.64      3.11         1.64
  C_1141-C-112                1.07      1.64      1.07      3.08         1.07
  C_1142-C-112                1.07      1.07      1.37      0.67         0.63
  C_1143-C-112                0.57      0.57      1.37      2.13         0.01
  C_1144-C-112                0.01      0.57      0.01      3.11         0.01
  C_1145-C-140                0.01      0.66      0.01      0.78         0.01
  C_1146-C-140                0.66      0.74      0.66      1.90         0.66
  C_1147-C-140                0.74      0.79      0.74      1.79         0.74
  C_1148-C-140                0.78      0.78      0.79      0.77         0.76
  C_1149-C-140                0.75      0.75      0.78      0.54         0.50
  C_1150-C-140                0.73      0.73      0.75      0.30         0.25
  C_1151-C-140                0.72      0.72      0.73      0.38         0.33
  C_1152-C-140                0.71      0.71      0.72      0.05         0.03
  C_1153-C-140                0.69      0.69      0.71      0.01         0.01
  C_1154-C-140                0.67      0.67      0.69      0.01         0.01
  C_1155-C-140                0.64      0.64      0.67      0.01         0.01
  C_1156-C-140                0.62      0.62      0.64      0.01         0.01
  C_1157-C-140                0.54      0.54      0.62      0.01         0.01
  C_1158-C-140                0.52      0.52      0.54      0.01         0.01
  C_1159-C-140                0.47      0.47      0.49      0.01         0.01
  C_1160-C-140                0.49      0.49      0.52      0.07         0.06
  C_1161-C-140                0.44      0.44      0.47      0.01         0.01
  C_1162-C-140                0.40      0.40      0.44      0.01         0.01
  C_1163-C-140                0.38      0.38      0.40      0.01         0.01
  C_1164-C-140                0.33      0.33      0.38      0.01         0.01
  C_1165-C-91                 0.01      0.01      0.27      0.01         0.01
  C_1167-C-91                 0.33      0.33      0.33      0.35         0.33
  C_1168-C-91                 0.33      0.33      0.33      0.35         0.33
  C_1169-C-91                 0.32      0.32      0.33      0.14         0.13
  C_1170-C-91                 0.31      0.31      0.32      0.03         0.02
  C_1171-C-91                 0.30      0.30      0.31      0.01         0.01
  C_1172-C-91                 0.29      0.29      0.30      0.01         0.01
  C_1173-C-91                 0.26      0.26      0.29      0.01         0.01
  C_1174-C-91                 0.20      0.20      0.26      0.01         0.01
  C_1175-C-91                 0.01      0.01      0.20      0.01         0.01
  C_1183-C-91                 0.01      0.01      0.10      0.01         0.01
  C_1184-C-91                 0.10      0.10      0.13      0.01         0.01
  C_1185-C-91                 0.13      0.13      0.26      0.01         0.01
  C_1186-C-91                 0.26      0.26      0.29      0.01         0.01
  C_1187-C-91                 0.29      0.29      0.31      0.01         0.01
  C_1188-C-91                 0.31      0.31      0.48      0.01         0.01
  C_1189-C-91                 0.48      0.48      0.53      0.01         0.01
  C_1190-C-91                 0.53      0.53      0.58      0.01         0.01
  C_1191-C-91                 0.58      0.58      0.62      0.01         0.01
  C_1192-C-91                 0.62      0.62      0.66      0.01         0.01
  C_1193-C-91                 0.66      0.66      0.72      0.01         0.01
  C_1194-C-91                 0.70      0.72      0.70      0.79         0.70
  C_1195-C-91                 0.01      0.70      0.01      0.74         0.01
  C_1197-C-29                 0.98      1.10      0.98      1.75         0.62
  C_1198-C-29                 1.10      1.10      1.10      0.35         0.23
  C_1199-C-29                 1.07      1.07      1.10      0.01         0.01
  C_1200-C-29                 1.06      1.06      1.07      0.57         0.61
  C_1201-C-29                 1.05      1.05      1.06      1.03         1.00
  C_1202-C-29                 1.05      1.05      1.05      0.01         0.05
  C_1203-C-29                 1.03      1.03      1.05      0.80         0.62
  C_1204-C-29                 1.03      1.03      1.03      0.65         0.54
  C_1205-C-29                 1.02      1.02      1.03      0.41         0.32
  C_1206-C-29                 1.02      1.03      1.02      1.07         1.00
  C_1207-C-29                 1.03      1.03      1.03      0.46         0.29
  C_1208-C-29                 1.01      1.01      1.03      0.01         0.01
  C_1209-C-29                 1.01      1.01      1.01      1.03         1.01
  C_1210-C-29                 0.98      0.98      1.01      0.01         0.01
  C_1211-C-29                 0.97      0.97      0.98      0.01         0.42
  C_1212-C-29                 0.95      0.95      0.97      0.88         0.87
  C_1213-C-29                 0.91      0.91      0.95      0.01         0.01
  C_1214-C-29                 0.65      0.65      0.74      0.01         0.01
  C_1215-C-29                 0.43      0.43      0.65      0.01         0.01
  C_1216-C-29                 0.03      0.03      0.32      0.01         0.01
  C_1217-C-29                 0.01      0.01      0.03      0.01         0.01
  C_1222-C-29                 0.01      0.02      0.01      0.59         0.01
  C_1223-C-29                 0.01      0.01      0.02      0.01         0.01
  C_1226-C-29                 0.01      0.01      0.11      0.04         0.01
  C_1227-C-29                 0.09      0.09      0.11      0.08         0.06
  C_1228-C-29                 0.09      0.09      0.17      0.01         0.01
  C_1229-C-29                 0.01      0.01      0.17      0.01         0.01
  C_1234-C-30                 0.01      0.01      0.01      0.27         0.01
  C_1235-C-30                 0.01      0.01      0.37      0.01         0.01
  C_1236-C-100                0.01      0.39      0.01      0.47         0.01
  C_1237-C-30                 0.01      0.01      0.40      0.42         0.01
  C_1238-C-30                 0.37      0.37      0.40      0.01         0.01
  C_1239-C-100                0.40      0.40      0.42      1.03         0.01
  C_1240-C-100                0.39      0.40      0.39      0.41         0.39
  C_1241-C-124                0.01      0.01      0.31      0.01         0.01
  C_1242-C-124                0.01      0.01      0.01      0.05         0.01
  C_1248-C-124                0.01      0.01      0.15      0.01         0.01
  C_1249-C-124                0.15      0.15      0.53      0.01         0.01
  C_1250-C-124                0.49      0.49      0.53      0.01         0.01
  C_1251-C-124                0.45      0.45      0.49      0.01         0.01
  C_1252-C-124                0.45      0.45      0.45      0.22         0.21
  C_1253-C-124                0.45      0.45      0.46      0.02         0.10
  C_1254-C-124                0.36      0.36      0.46      0.01         0.01
  C_1255-C-124                0.01      0.01      0.36      0.01         0.01
  C_1256-C-124                0.01      0.01      0.01      0.37         0.01
  C_1257-C-124                0.01      0.01     23.80      0.01         0.01
  C_1258-C-124               23.80     23.80     23.80      0.01         0.01
  C_1259-C-95                 0.01     23.82      0.01      0.27         0.01
  C_1260-C-85                23.80     23.80     23.80      0.06         2.72
  C_1261-C-85                23.80     23.80     23.80      0.01         0.01
  C_1262-C-85                23.80     23.80     23.80      0.01         0.01
  C_1263-C-85                 0.63      0.63     23.80      0.40         0.31
  C_1264-C-85                 0.58      0.63      0.63      0.44         0.44
  C_1265-C-85                 0.52      0.52      0.63      0.01         0.01
  C_1266-C-85                 0.42      0.42      0.52      0.36         0.28
  C_1267-C-85                 0.35      0.35      0.42      0.01         0.01
  C_1268-C-85                 0.34      0.34      0.35      0.01         0.01
  C_1269-C-85                 0.29      0.29      0.34      0.01         0.01
  C_1270-C-85                 0.01      0.01      0.29      0.01         0.01
  C_1279-C-35                 0.01      0.01      0.01      0.77         0.01
  C_1280-C-35                 0.01      0.01      0.01      1.07         0.01
  C_1281-C-35                 0.01      0.01      0.45      0.56         0.01
  C_1282-C-35                 0.43      0.43      0.45      0.01         0.01
  C_1283-C-35                 0.01      0.01      0.43      0.01         0.01
  C_1284-C-35                 0.01      0.39      0.01      0.41         0.01
  C_1285-C-35                 0.01      0.01      0.39      0.01         0.01
  C_1286-C-35                 0.01      0.38      0.01      0.40         0.01
  C_1287-C-35                 0.01      0.01      0.38      0.01         0.01
  C_1288-C-35                 0.01      0.01      0.01      0.38         0.01
  C_1289-C-35                 0.01      0.01      0.01      0.35         0.01
  C_1291-C-35                 0.01      0.01      0.35      0.52         0.01
  C_1292-C-35                 0.01      0.01      0.35      0.01         0.01
  C_1293-C-35                 0.01      0.01      0.01      0.38         0.01
  C_1294-C-35                 0.01      0.01      0.01      0.41         0.01
  C_1295-C-35                 0.01      0.01      0.01      0.43         0.01
  C_1296-C-35                 0.01      0.01      0.01      0.37         0.01
  C_1297-C-35                 0.01      0.01      0.01      0.36         0.01
  C_1298-C-35                 0.01      0.33      0.01      0.36         0.01
  C_1299-C-35                 0.31      0.31      0.33      0.01         0.01
  C_1300-C-35                 0.29      0.29      0.31      0.01         0.01
  C_1301-C-35                 0.01      0.01      0.29      0.01         0.01
  C_1302-C-35                 0.01      0.01      0.01      0.25         0.01
  C_1303-C-35                 0.01      0.01      0.01      0.01         0.01
  C_1304-C-35                 0.01      0.23      0.01      0.33         0.01
  C_1305-C-35                 0.17      0.17      0.23      0.01         0.01
  C_1306-C-35                 0.01      0.01      0.17      0.01         0.01
  C_1322-C-35                 0.01      0.01      0.01      0.39         0.01
  C_1325-C-42                 0.28      0.34      0.28      0.61         0.28
  C_1326-C-42                 0.32      0.32      0.34      0.27         0.27
  C_1327-C-42                 0.21      0.21      0.32      0.01         0.01
  C_1328-C-42                 0.13      0.13      0.21      0.01         0.01
  C_1329-C-42                 0.08      0.08      0.13      0.01         0.01
  C_1330-C-42                 0.01      0.01      0.08      0.01         0.01
  C_1334-C-42                 0.01      0.01      0.01      0.29         0.01
  C_1339-C-42                 0.01      0.01      0.29      0.01         0.01
  C_1340-C-42                 0.29      0.29      0.45      0.01         0.01
  C_1341-C-42                 0.45      0.45      0.49      0.01         0.01
  C_1342-C-42                 0.49      0.49      0.79      0.01         0.01
  C_1343-C-42                 0.79      0.79      0.94      0.26         0.25
  C_1344-C-42                 0.94      0.94      0.99      0.42         0.43
  C_1345-C-42                 0.99      0.99      1.12      0.01         0.01
  C_1346-C-42                 1.12      1.12      1.14      0.01         0.01
  C_1347-C-42                 1.14      1.14      1.14      0.80         0.34
  C_1348-C-42                 1.13      1.14      1.14      0.88         0.34
  C_1349-C-42                 1.14      1.14      1.31      0.01         0.01
  C_1350-C-89                 1.79      1.79      1.82      0.02         0.18
  C_1351-C-89                 1.82      1.82      1.82      1.16         0.33
  C_1352-C-89                 1.64      1.64      1.82      0.01         0.01
  C_1353-C-89                 1.46      1.46      1.64      0.42         0.15
  C_1354-C-89                 1.40      1.40      1.46      0.01         0.01
  C_1355-C-89                 1.30      1.30      1.40      0.01         0.01
  C_1356-C-89                 1.29      1.29      1.30      1.61         0.70
  C_1357-C-89                 1.15      1.15      1.29      0.01         0.02
  C_1358-C-89                 1.15      1.15      1.16      0.36         0.38
  C_1359-C-89                 1.14      1.16      1.14      1.25         1.12
  C_1360-C-89                 1.14      1.14      1.39      0.01         0.01
  C_1361-C-89                 1.39      1.39      9.33      0.01         0.01
  C_1362-C-89                 9.33      9.33     23.82      0.01         0.01
  C_1363-C-89                23.82     23.82     23.82      0.93         1.82
  C_1364-C-89                23.82     23.82     23.82      1.26         3.14
  C_1365-C-89                23.82     23.82     23.82      1.16         3.67
  C_1366-C-89                 2.35      2.35     23.82      0.01         0.01
  C_1367-C-89                 1.76      1.76      2.35      0.01         0.01
  C_1368-C-89                 1.38      1.38      1.76      0.01         0.01
  C_1369-C-89                 0.54      0.54      1.38      0.01         0.01
  C_1370-C-89                 0.50      0.50      0.54      0.01         0.01
  C_1371-C-89                 0.50      0.50      0.51      0.61         0.22
  C_1372-C-89                 0.51      0.51      0.56      0.04         0.07
  C_1373-C-89                 0.56      0.56      0.99      0.01         0.01
  C_1374-C-89                 0.99      0.99      1.53      0.01         0.01
  C_1375-C-89                 1.53      1.53      1.98      0.01         0.01
  C_1376-C-89                 1.98      1.98      2.08      0.01         0.01
  C_1377-C-89                 2.08      2.08      2.13      0.01         0.01
  C_1378-C-89                 2.13      2.13      2.16      0.71         0.78
  C_1379-C-141                2.13      2.13      2.25      0.01         0.01
  C_1380-C-141                2.11      2.11      2.13      0.01         0.10
  C_1381-C-141                2.11      2.11      2.19      0.01         0.01
  C_1382-C-141                2.14      2.14      2.19      0.01         0.01
  C_1383-C-141                2.07      2.07      2.14      0.01         0.01
  C_1384-C-141                1.98      1.98      2.07      0.01         0.01
  C_1385-C-141                1.90      1.90      1.98      0.50         0.48
  C_1386-C-141                1.70      1.70      1.90      0.01         0.01
  C_1387-C-141                0.61      0.61      1.70      0.01         0.01
  C_1388-C-141                0.33      0.33      0.61      0.01         0.01
  C_1389-C-141                0.01      0.01      0.33      0.01         0.01
  C_1390-C-141                0.01      0.01      0.01      0.34         0.01
  C_1391-C-141                0.01      0.01      0.25      0.01         0.01
  C_1392-C-141                0.25      0.25      0.33      0.01         0.01
  C_1393-C-141                0.33      0.33      0.44      0.01         0.01
  C_1394-C-141                0.44      0.44      0.45      0.01         0.01
  C_1395-C-141                0.45      0.45      0.46      0.01         0.01
  C_1396-C-141                0.46      0.46      0.58      0.01         0.01
  C_1397-C-141                0.56      0.58      0.56      0.75         0.56
  C_1398-C-141                0.56      0.56      0.56      0.56         0.55
  C_1399-C-141                0.55      0.56      0.55      0.60         0.55
  C_1400-C-141                0.01      0.01      0.55      0.82         0.01
  C_1401-C-109                0.01      0.62      0.01      1.14         0.01
  C_1402-C-109                0.62      0.86      0.62      1.38         0.62
  C_1403-C-109                0.86      0.86      1.19      1.80         0.01
  C_1404-C-109                1.19      1.29      1.19      1.39         1.04
  C_1405-C-109                1.29      1.30      1.29      1.08         0.95
  C_1406-C-109                1.24      1.24      1.30      0.01         0.03
  C_1407-C-109                1.16      1.16      1.24      0.01         0.06
  C_1408-C-109                1.16      1.19      1.16      0.96         0.74
  C_1409-C-109                1.18      1.18      1.19      0.42         0.31
  C_1410-C-109                1.18      1.18      1.43      0.01         0.01
  C_1411-C-109                1.25      1.25      1.43      0.01         0.01
  C_1412-C-109                1.25      1.28      1.25      1.41         1.25
  C_1413-C-109                1.27      1.27      1.28      0.45         0.45
  C_1414-C-109                1.27      1.27      1.32      1.05         0.01
  C_1415-C-109                1.31      1.31      1.32      0.40         0.35
  C_1416-C-109                1.29      1.29      1.31      0.01         0.09
  C_1417-C-109                1.29      1.29      1.34      0.57         0.01
  C_1418-C-109                1.34      1.34      1.37      1.07         0.01
  C_1419-C-109                1.22      1.22      1.24      0.01         0.01
  C_1420-C-109                1.16      1.16      1.22      0.01         0.01
  C_1421-C-109                1.09      1.09      1.16      0.01         0.01
  C_1422-C-109                0.36      0.36      1.09      0.01         0.01
  C_1423-C-109                0.27      0.27      0.36      0.01         0.01
  C_1425-C-139                0.01      0.01      0.25      0.01         0.01
  

  Analysis begun on:  Sat Oct 18 09:23:27 2025
  Analysis ended on:  Sat Oct 18 09:24:06 2025
  Total elapsed time: 00:00:39