
  EPA STORM WATER MANAGEMENT MODEL - VERSION 5.2 (Build 5.2.4)
  PYSWMM TOOLKIT API - VERSION v1.0 (2025-09-04)
  ------------------------------------------------------------

  Mandaue City Drainage Network Model 
  Generated from GIS data 
  2025-10-16 15:17 
  WARNING 04: minimum elevation drop used for Conduit C_181-C-95
  WARNING 04: minimum elevation drop used for Conduit C_224-C-3
  WARNING 04: minimum elevation drop used for Conduit C_230-C-3
  WARNING 04: minimum elevation drop used for Conduit C_242-C-3
  WARNING 04: minimum elevation drop used for Conduit C_243-C-3
  WARNING 04: minimum elevation drop used for Conduit C_328-C-113
  WARNING 04: minimum elevation drop used for Conduit C_331-C-113
  WARNING 04: minimum elevation drop used for Conduit C_341-C-113
  WARNING 04: minimum elevation drop used for Conduit C_377-C-113
  WARNING 04: minimum elevation drop used for Conduit C_386-C-142
  WARNING 04: minimum elevation drop used for Conduit C_394-C-142
  WARNING 04: minimum elevation drop used for Conduit C_406-C-142
  WARNING 04: minimum elevation drop used for Conduit C_429-C-55
  WARNING 04: minimum elevation drop used for Conduit C_436-C-55
  WARNING 04: minimum elevation drop used for Conduit C_441-C-106
  WARNING 04: minimum elevation drop used for Conduit C_446-C-106
  WARNING 04: minimum elevation drop used for Conduit C_462-C-8
  WARNING 04: minimum elevation drop used for Conduit C_478-C-28
  WARNING 04: minimum elevation drop used for Conduit C_479-C-28
  WARNING 04: minimum elevation drop used for Conduit C_483-C-28
  WARNING 04: minimum elevation drop used for Conduit C_492-C-28
  WARNING 04: minimum elevation drop used for Conduit C_585-C-7
  WARNING 04: minimum elevation drop used for Conduit C_587-C-7
  WARNING 04: minimum elevation drop used for Conduit C_591-C-7
  WARNING 04: minimum elevation drop used for Conduit C_597-C-7
  WARNING 04: minimum elevation drop used for Conduit C_600-C-7
  WARNING 04: minimum elevation drop used for Conduit C_603-C-7
  WARNING 04: minimum elevation drop used for Conduit C_642-C-7
  WARNING 04: minimum elevation drop used for Conduit C_649-C-7
  WARNING 04: minimum elevation drop used for Conduit C_671-C-7
  WARNING 04: minimum elevation drop used for Conduit C_677-C-7
  WARNING 04: minimum elevation drop used for Conduit C_737-C-81
  WARNING 04: minimum elevation drop used for Conduit C_752-C-24
  WARNING 04: minimum elevation drop used for Conduit C_783-C-83
  WARNING 04: minimum elevation drop used for Conduit C_786-C-83
  WARNING 04: minimum elevation drop used for Conduit C_798-C-83
  WARNING 04: minimum elevation drop used for Conduit C_857-C-32
  WARNING 04: minimum elevation drop used for Conduit C_909-C-34
  WARNING 04: minimum elevation drop used for Conduit C_921-C-34
  WARNING 04: minimum elevation drop used for Conduit C_953-C-2
  WARNING 04: minimum elevation drop used for Conduit C_964-C-2
  WARNING 04: minimum elevation drop used for Conduit C_1131-C-112
  WARNING 04: minimum elevation drop used for Conduit C_1136-C-112
  WARNING 04: minimum elevation drop used for Conduit C_1138-C-112
  WARNING 04: minimum elevation drop used for Conduit C_1140-C-112
  WARNING 04: minimum elevation drop used for Conduit C_1141-C-112
  WARNING 04: minimum elevation drop used for Conduit C_1144-C-112
  WARNING 04: minimum elevation drop used for Conduit C_1146-C-140
  WARNING 04: minimum elevation drop used for Conduit C_1147-C-140
  WARNING 04: minimum elevation drop used for Conduit C_1234-C-30
  WARNING 04: minimum elevation drop used for Conduit C_1260-C-85
  WARNING 04: minimum elevation drop used for Conduit C_1280-C-35
  WARNING 04: minimum elevation drop used for Conduit C_1347-C-42
  WARNING 04: minimum elevation drop used for Conduit C_1348-C-42
  WARNING 04: minimum elevation drop used for Conduit C_1351-C-89
  WARNING 04: minimum elevation drop used for Conduit C_1356-C-89
  WARNING 04: minimum elevation drop used for Conduit C_1364-C-89
  WARNING 04: minimum elevation drop used for Conduit C_1365-C-89
  WARNING 02: maximum depth increased for Node I-8
  WARNING 02: maximum depth increased for Node I-14
  WARNING 02: maximum depth increased for Node I-23
  WARNING 02: maximum depth increased for Node I-30
  WARNING 02: maximum depth increased for Node I-33
  WARNING 02: maximum depth increased for Node I-35
  WARNING 02: maximum depth increased for Node I-36
  WARNING 02: maximum depth increased for Node I-37
  WARNING 02: maximum depth increased for Node I-41
  WARNING 02: maximum depth increased for Node I-43
  WARNING 02: maximum depth increased for Node I-46
  WARNING 02: maximum depth increased for Node I-50
  WARNING 02: maximum depth increased for Node I-51
  WARNING 02: maximum depth increased for Node I-53
  WARNING 02: maximum depth increased for Node I-60
  WARNING 02: maximum depth increased for Node I-63
  WARNING 02: maximum depth increased for Node I-64
  WARNING 02: maximum depth increased for Node I-65
  WARNING 02: maximum depth increased for Node I-66
  WARNING 02: maximum depth increased for Node I-68
  WARNING 02: maximum depth increased for Node I-72
  WARNING 02: maximum depth increased for Node I-74
  WARNING 02: maximum depth increased for Node I-75
  WARNING 02: maximum depth increased for Node I-77
  WARNING 02: maximum depth increased for Node I-78
  WARNING 02: maximum depth increased for Node I-79
  WARNING 02: maximum depth increased for Node I-82
  WARNING 02: maximum depth increased for Node I-90
  WARNING 02: maximum depth increased for Node I-91
  WARNING 02: maximum depth increased for Node I-96
  WARNING 02: maximum depth increased for Node I-104
  WARNING 02: maximum depth increased for Node I-106
  WARNING 02: maximum depth increased for Node I-108
  WARNING 02: maximum depth increased for Node I-113
  WARNING 02: maximum depth increased for Node I-117
  WARNING 02: maximum depth increased for Node I-125
  WARNING 02: maximum depth increased for Node I-126
  WARNING 02: maximum depth increased for Node I-128
  WARNING 02: maximum depth increased for Node I-136
  WARNING 02: maximum depth increased for Node I-137
  WARNING 02: maximum depth increased for Node I-139
  WARNING 02: maximum depth increased for Node I-140
  WARNING 02: maximum depth increased for Node ISD-1
  WARNING 02: maximum depth increased for Node ISD-2
  WARNING 02: maximum depth increased for Node ISD-3
  WARNING 02: maximum depth increased for Node ISD-4
  WARNING 02: maximum depth increased for Node ISD-5
  WARNING 02: maximum depth increased for Node ISD-6
  WARNING 02: maximum depth increased for Node ISD-7
  WARNING 02: maximum depth increased for Node ISD-8
  WARNING 02: maximum depth increased for Node ISD-9
  WARNING 02: maximum depth increased for Node ISD-10
  WARNING 02: maximum depth increased for Node ISD-11
  WARNING 02: maximum depth increased for Node ISD-12
  WARNING 02: maximum depth increased for Node ISD-13
  WARNING 02: maximum depth increased for Node ISD-14
  WARNING 02: maximum depth increased for Node ISD-15
  WARNING 02: maximum depth increased for Node ISD-16
  WARNING 02: maximum depth increased for Node ISD-17
  WARNING 02: maximum depth increased for Node ISD-18
  WARNING 02: maximum depth increased for Node ISD-19
  WARNING 02: maximum depth increased for Node ISD-20
  WARNING 02: maximum depth increased for Node ISD-21
  WARNING 02: maximum depth increased for Node ISD-22
  WARNING 02: maximum depth increased for Node ISD-23
  WARNING 02: maximum depth increased for Node ISD-24
  WARNING 02: maximum depth increased for Node ISD-25
  WARNING 02: maximum depth increased for Node ISD-26
  WARNING 02: maximum depth increased for Node ISD-27
  WARNING 02: maximum depth increased for Node ISD-28
  WARNING 02: maximum depth increased for Node ISD-29
  WARNING 02: maximum depth increased for Node ISD-30
  WARNING 02: maximum depth increased for Node ISD-31
  WARNING 02: maximum depth increased for Node ISD-32
  WARNING 02: maximum depth increased for Node ISD-33
  WARNING 02: maximum depth increased for Node ISD-34
  WARNING 02: maximum depth increased for Node ISD-35
  WARNING 02: maximum depth increased for Node ISD-36
  WARNING 02: maximum depth increased for Node ISD-37
  WARNING 02: maximum depth increased for Node ISD-38
  WARNING 02: maximum depth increased for Node ISD-39
  WARNING 02: maximum depth increased for Node ISD-40
  WARNING 02: maximum depth increased for Node ISD-41
  WARNING 02: maximum depth increased for Node ISD-42
  WARNING 02: maximum depth increased for Node ISD-43
  WARNING 02: maximum depth increased for Node ISD-44
  WARNING 02: maximum depth increased for Node ISD-45
  WARNING 02: maximum depth increased for Node ISD-46
  WARNING 02: maximum depth increased for Node ISD-47
  WARNING 02: maximum depth increased for Node ISD-48
  WARNING 02: maximum depth increased for Node ISD-49
  WARNING 02: maximum depth increased for Node ISD-50
  WARNING 02: maximum depth increased for Node ISD-51
  WARNING 02: maximum depth increased for Node ISD-52
  WARNING 02: maximum depth increased for Node ISD-53
  WARNING 02: maximum depth increased for Node ISD-54
  WARNING 02: maximum depth increased for Node ISD-55
  WARNING 02: maximum depth increased for Node ISD-56
  WARNING 02: maximum depth increased for Node ISD-57
  WARNING 02: maximum depth increased for Node ISD-58
  WARNING 02: maximum depth increased for Node ISD-59
  WARNING 02: maximum depth increased for Node ISD-60
  WARNING 02: maximum depth increased for Node ISD-61
  WARNING 02: maximum depth increased for Node ISD-62
  WARNING 02: maximum depth increased for Node ISD-63
  WARNING 02: maximum depth increased for Node ISD-64
  WARNING 02: maximum depth increased for Node ISD-65
  WARNING 02: maximum depth increased for Node ISD-66
  WARNING 02: maximum depth increased for Node ISD-67
  WARNING 02: maximum depth increased for Node ISD-68
  WARNING 02: maximum depth increased for Node ISD-273
  WARNING 02: maximum depth increased for Node ISD-274
  WARNING 02: maximum depth increased for Node ISD-275
  WARNING 02: maximum depth increased for Node ISD-276
  WARNING 02: maximum depth increased for Node ISD-277
  WARNING 02: maximum depth increased for Node ISD-278
  WARNING 02: maximum depth increased for Node ISD-279
  WARNING 02: maximum depth increased for Node ISD-280
  WARNING 02: maximum depth increased for Node ISD-281
  WARNING 02: maximum depth increased for Node ISD-282
  WARNING 02: maximum depth increased for Node ISD-283
  WARNING 02: maximum depth increased for Node ISD-285
  WARNING 02: maximum depth increased for Node ISD-286
  WARNING 02: maximum depth increased for Node ISD-287
  WARNING 02: maximum depth increased for Node ISD-288
  WARNING 02: maximum depth increased for Node ISD-289
  WARNING 02: maximum depth increased for Node ISD-290
  WARNING 02: maximum depth increased for Node ISD-291
  WARNING 02: maximum depth increased for Node ISD-292
  WARNING 02: maximum depth increased for Node ISD-293
  WARNING 02: maximum depth increased for Node ISD-294
  WARNING 02: maximum depth increased for Node ISD-295
  WARNING 02: maximum depth increased for Node ISD-296
  WARNING 02: maximum depth increased for Node ISD-297
  WARNING 02: maximum depth increased for Node ISD-298
  WARNING 02: maximum depth increased for Node ISD-299
  WARNING 02: maximum depth increased for Node ISD-300
  WARNING 02: maximum depth increased for Node ISD-301
  WARNING 02: maximum depth increased for Node ISD-302
  WARNING 02: maximum depth increased for Node ISD-303
  WARNING 02: maximum depth increased for Node ISD-304
  WARNING 02: maximum depth increased for Node ISD-305
  WARNING 02: maximum depth increased for Node ISD-306
  WARNING 02: maximum depth increased for Node ISD-307
  WARNING 02: maximum depth increased for Node ISD-308
  WARNING 02: maximum depth increased for Node ISD-309
  WARNING 02: maximum depth increased for Node ISD-310
  WARNING 02: maximum depth increased for Node ISD-311
  WARNING 02: maximum depth increased for Node ISD-312
  WARNING 02: maximum depth increased for Node ISD-313
  WARNING 02: maximum depth increased for Node ISD-314
  WARNING 02: maximum depth increased for Node ISD-315
  WARNING 02: maximum depth increased for Node ISD-316
  WARNING 02: maximum depth increased for Node ISD-317
  WARNING 02: maximum depth increased for Node ISD-318
  WARNING 02: maximum depth increased for Node ISD-319
  WARNING 02: maximum depth increased for Node ISD-320
  WARNING 02: maximum depth increased for Node ISD-321
  WARNING 02: maximum depth increased for Node ISD-322
  WARNING 02: maximum depth increased for Node ISD-323
  WARNING 02: maximum depth increased for Node ISD-324
  WARNING 02: maximum depth increased for Node ISD-325
  WARNING 02: maximum depth increased for Node ISD-326
  WARNING 02: maximum depth increased for Node ISD-327
  WARNING 02: maximum depth increased for Node ISD-328
  WARNING 02: maximum depth increased for Node ISD-329
  WARNING 02: maximum depth increased for Node ISD-330
  WARNING 02: maximum depth increased for Node ISD-331
  WARNING 02: maximum depth increased for Node ISD-332
  WARNING 02: maximum depth increased for Node ISD-333
  WARNING 02: maximum depth increased for Node ISD-334
  WARNING 02: maximum depth increased for Node ISD-335
  WARNING 02: maximum depth increased for Node ISD-336
  WARNING 02: maximum depth increased for Node ISD-337
  WARNING 02: maximum depth increased for Node ISD-338
  WARNING 02: maximum depth increased for Node ISD-339
  WARNING 02: maximum depth increased for Node ISD-340
  WARNING 02: maximum depth increased for Node ISD-341
  WARNING 02: maximum depth increased for Node ISD-342
  WARNING 02: maximum depth increased for Node ISD-343
  WARNING 02: maximum depth increased for Node ISD-344
  WARNING 02: maximum depth increased for Node ISD-345
  WARNING 02: maximum depth increased for Node ISD-346
  WARNING 02: maximum depth increased for Node ISD-347
  WARNING 02: maximum depth increased for Node ISD-348
  WARNING 02: maximum depth increased for Node ISD-349
  WARNING 02: maximum depth increased for Node ISD-350
  WARNING 02: maximum depth increased for Node ISD-351
  WARNING 02: maximum depth increased for Node ISD-352
  WARNING 02: maximum depth increased for Node ISD-353
  WARNING 02: maximum depth increased for Node ISD-354
  WARNING 02: maximum depth increased for Node ISD-355
  WARNING 02: maximum depth increased for Node ISD-356
  WARNING 02: maximum depth increased for Node ISD-357
  WARNING 02: maximum depth increased for Node ISD-358
  WARNING 02: maximum depth increased for Node ISD-1089
  WARNING 02: maximum depth increased for Node ISD-1090
  WARNING 02: maximum depth increased for Node ISD-1091
  WARNING 02: maximum depth increased for Node ISD-1092
  WARNING 02: maximum depth increased for Node ISD-1093
  WARNING 02: maximum depth increased for Node ISD-1094
  WARNING 02: maximum depth increased for Node ISD-1095
  WARNING 02: maximum depth increased for Node ISD-1096
  WARNING 02: maximum depth increased for Node ISD-1097
  WARNING 02: maximum depth increased for Node ISD-1098
  WARNING 02: maximum depth increased for Node ISD-1099
  WARNING 02: maximum depth increased for Node ISD-1100
  WARNING 02: maximum depth increased for Node ISD-1101
  WARNING 02: maximum depth increased for Node ISD-1102
  WARNING 02: maximum depth increased for Node ISD-1103
  WARNING 02: maximum depth increased for Node ISD-1104
  WARNING 02: maximum depth increased for Node ISD-1105
  WARNING 02: maximum depth increased for Node ISD-1106
  WARNING 02: maximum depth increased for Node ISD-1107
  WARNING 02: maximum depth increased for Node ISD-1108
  WARNING 02: maximum depth increased for Node ISD-1109
  WARNING 02: maximum depth increased for Node ISD-1110
  WARNING 02: maximum depth increased for Node ISD-1111
  WARNING 02: maximum depth increased for Node ISD-1112
  WARNING 02: maximum depth increased for Node ISD-1113
  WARNING 02: maximum depth increased for Node ISD-1114
  WARNING 02: maximum depth increased for Node ISD-1115
  WARNING 02: maximum depth increased for Node ISD-1116
  WARNING 02: maximum depth increased for Node ISD-1117
  WARNING 02: maximum depth increased for Node ISD-1118
  WARNING 02: maximum depth increased for Node ISD-1119
  WARNING 02: maximum depth increased for Node ISD-1120
  WARNING 02: maximum depth increased for Node ISD-1121
  WARNING 02: maximum depth increased for Node ISD-1122
  WARNING 02: maximum depth increased for Node ISD-1123
  WARNING 02: maximum depth increased for Node ISD-1124
  WARNING 02: maximum depth increased for Node ISD-1125
  WARNING 02: maximum depth increased for Node ISD-1126
  WARNING 02: maximum depth increased for Node ISD-1127
  WARNING 02: maximum depth increased for Node ISD-1128
  WARNING 02: maximum depth increased for Node ISD-1129
  WARNING 02: maximum depth increased for Node ISD-1130
  WARNING 02: maximum depth increased for Node ISD-1131
  WARNING 02: maximum depth increased for Node ISD-1132
  WARNING 02: maximum depth increased for Node ISD-1133
  WARNING 02: maximum depth increased for Node ISD-1134
  WARNING 02: maximum depth increased for Node ISD-1135
  WARNING 02: maximum depth increased for Node ISD-1136
  WARNING 02: maximum depth increased for Node ISD-1137
  WARNING 02: maximum depth increased for Node ISD-1138
  
  ****************
  Analysis Options
  ****************
  Flow Units ............... CMS
  Process Models:
    Rainfall/Runoff ........ YES
    RDII ................... NO
    Snowmelt ............... NO
    Groundwater ............ NO
    Flow Routing ........... YES
    Ponding Allowed ........ YES
    Water Quality .......... NO
  Infiltration Method ...... HORTON
  Flow Routing Method ...... DYNWAVE
  Surcharge Method ......... EXTRAN
  Starting Date ............ 01/01/2024 00:00:00
  Ending Date .............. 01/02/2024 00:00:00
  Antecedent Dry Days ...... 0.0
  Report Time Step ......... 00:15:00
  Wet Time Step ............ 00:05:00
  Dry Time Step ............ 01:00:00
  Routing Time Step ........ 10.00 sec
  Variable Time Step ....... YES
  Maximum Trials ........... 8
  Number of Threads ........ 1
  Head Tolerance ........... 0.001500 m
  
  
  **************************        Volume         Depth
  Runoff Quantity Continuity     hectare-m            mm
  **************************     ---------       -------
  Total Precipitation ......        81.142       104.899
  Evaporation Loss .........         0.000         0.000
  Infiltration Loss ........        32.865        42.487
  Surface Runoff ...........        48.119        62.208
  Final Storage ............         0.394         0.509
  Continuity Error (%) .....        -0.290
  
  
  **************************        Volume        Volume
  Flow Routing Continuity        hectare-m      10^6 ltr
  **************************     ---------     ---------
  Dry Weather Inflow .......         0.000         0.000
  Wet Weather Inflow .......        48.114       481.147
  Groundwater Inflow .......         0.000         0.000
  RDII Inflow ..............         0.000         0.000
  External Inflow ..........         0.000         0.000
  External Outflow .........        17.243       172.429
  Flooding Loss ............        30.438       304.386
  Evaporation Loss .........         0.000         0.000
  Exfiltration Loss ........         0.000         0.000
  Initial Stored Volume ....         0.019         0.188
  Final Stored Volume ......         0.515         5.153
  Continuity Error (%) .....        -0.132
  
  
  *************************
  Highest Continuity Errors
  *************************
  Node I-2 (-63.41%)
  Node I-1 (-21.52%)
  Node I-30 (20.76%)
  Node I-114 (6.32%)
  Node I-36 (5.87%)
  
  
  ***************************
  Time-Step Critical Elements
  ***************************
  Link C_155-C-140 (50.44%)
  Link C_476-C-28 (8.88%)
  Link C_100-C-106 (7.21%)
  Link C_863-C-32 (3.35%)
  Link C_493-C-28 (1.79%)
  
  
  ********************************
  Highest Flow Instability Indexes
  ********************************
  Link C_992-C-2 (69)
  Link C_629-C-7 (57)
  Link C_633-C-7 (54)
  Link C_180-C-96 (54)
  Link C_630-C-7 (53)
  
  
  *********************************
  Most Frequent Nonconverging Nodes
  *********************************
  Node O-0 (34.21%)
  Node O-1 (34.21%)
  Node O-2 (34.21%)
  Node O-3 (34.21%)
  Node O-4 (34.21%)
  
  
  *************************
  Routing Time Step Summary
  *************************
  Minimum Time Step           :     0.50 sec
  Average Time Step           :     2.00 sec
  Maximum Time Step           :    10.00 sec
  % of Time in Steady State   :     0.00
  Average Iterations per Step :     5.03
  % of Steps Not Converging   :    34.21
  Time Step Frequencies       :
     10.000 -  5.493 sec      :     3.64 %
      5.493 -  3.017 sec      :    15.80 %
      3.017 -  1.657 sec      :    36.98 %
      1.657 -  0.910 sec      :     6.75 %
      0.910 -  0.500 sec      :    36.84 %
  
  
  ***************************
  Subcatchment Runoff Summary
  ***************************
  
  ------------------------------------------------------------------------------------------------------------------------------
                            Total      Total      Total      Total     Imperv       Perv      Total       Total     Peak  Runoff
                           Precip      Runon       Evap      Infil     Runoff     Runoff     Runoff      Runoff   Runoff   Coeff
  Subcatchment                 mm         mm         mm         mm         mm         mm         mm    10^6 ltr      CMS
  ------------------------------------------------------------------------------------------------------------------------------
  SC_I-0                   104.90       0.00       0.00      66.75       0.00      38.28      38.28        1.12     0.37   0.365
  SC_I-1                   104.90       0.00       0.00      71.16       0.00      33.83      33.83        1.45     0.43   0.322
  SC_I-2                   104.90       0.00       0.00      31.22      45.31      28.02      73.33        2.16     0.79   0.699
  SC_I-3                   104.90       0.00       0.00      74.27       0.00      30.70      30.70        1.02     0.28   0.293
  SC_I-4                   104.90       0.00       0.00      25.84      51.97      26.70      78.66        1.77     0.69   0.750
  SC_I-5                   104.90       0.00       0.00      50.01      36.35      18.22      54.57        5.39     1.89   0.520
  SC_I-6                   104.90       0.00       0.00      48.33      36.16      20.12      56.27        3.54     1.25   0.536
  SC_I-7                   104.90       0.00       0.00      43.38      36.40      24.89      61.28        1.22     0.45   0.584
  SC_I-8                   104.90       0.00       0.00      35.83      36.43      32.54      68.97        0.41     0.18   0.658
  SC_I-9                   104.90       0.00       0.00      47.84      36.37      20.40      56.76        3.02     1.07   0.541
  SC_I-10                  104.90       0.00       0.00      72.31       0.00      32.67      32.67        1.09     0.31   0.311
  SC_I-11                  104.90       0.00       0.00      76.56       0.00      28.40      28.40        1.71     0.45   0.271
  SC_I-12                  104.90       0.00       0.00      73.50       0.00      31.48      31.48        1.72     0.48   0.300
  SC_I-13                  104.90       0.00       0.00      49.44      36.35      18.79      55.14        4.19     1.47   0.526
  SC_I-14                  104.90       0.00       0.00      49.47      36.35      18.76      55.11        3.84     1.35   0.525
  SC_I-15                  104.90       0.00       0.00      48.84      36.36      19.39      55.75        3.54     1.25   0.531
  SC_I-16                  104.90       0.00       0.00      36.65      36.43      31.71      68.14        0.21     0.09   0.650
  SC_I-17                  104.90       0.00       0.00      70.54       0.00      34.45      34.45        0.43     0.13   0.328
  SC_I-20                  104.90       0.00       0.00      44.34      36.39      23.92      60.31        1.81     0.66   0.575
  SC_I-21                  104.90       0.00       0.00      79.39       0.00      25.56      25.56        1.54     0.37   0.244
  SC_I-22                  104.90       0.00       0.00      78.10       0.00      26.86      26.86        1.26     0.31   0.256
  SC_I-23                  104.90       0.00       0.00      46.62      36.37      21.62      58.00        2.51     0.90   0.553
  SC_I-24                  104.90       0.00       0.00      42.32      36.40      25.95      62.35        1.08     0.40   0.594
  SC_I-26                  104.90       0.00       0.00      47.14      36.37      21.10      57.48        3.49     1.24   0.548
  SC_I-27                  104.90       0.00       0.00      27.70      51.94      24.82      76.75        1.83     0.68   0.732
  SC_I-28                  104.90       0.00       0.00      37.66      36.42      30.68      67.11        0.23     0.09   0.640
  SC_I-29                  104.90       0.00       0.00      26.34      51.86      26.30      78.15        2.08     0.80   0.745
  SC_I-30                  104.90       0.00       0.00      24.48      51.99      28.08      80.06        0.83     0.34   0.763
  SC_I-31                  104.90       0.00       0.00      24.28      51.99      28.28      80.27        0.89     0.36   0.765
  SC_I-32                  104.90       0.00       0.00      20.11      52.04      32.55      84.59        0.14     0.07   0.806
  SC_I-33                  104.90       0.00       0.00      26.96      51.95      25.56      77.51        2.40     0.91   0.739
  SC_I-34                  104.90       0.00       0.00      56.56      23.71      24.48      48.19        3.93     1.25   0.459
  SC_I-35                  104.90       0.00       0.00      45.37      36.38      22.88      59.26        1.57     0.56   0.565
  SC_I-36                  104.90       0.00       0.00      31.71      46.54      26.25      72.79        4.86     1.75   0.694
  SC_I-37                  104.90       0.00       0.00      24.11      51.99      28.45      80.44        0.94     0.38   0.767
  SC_I-38                  104.90       0.00       0.00      46.09      36.38      22.16      58.54        2.59     0.93   0.558
  SC_I-39                  104.90       0.00       0.00      41.79      36.40      26.49      62.90        0.88     0.33   0.600
  SC_I-40                  104.90       0.00       0.00      28.64      51.41      24.39      75.80        3.00     1.10   0.723
  SC_I-41                  104.90       0.00       0.00      28.10      51.93      24.41      76.34        3.20     1.19   0.728
  SC_I-42                  104.90       0.00       0.00      23.03      52.01      29.55      81.56        0.50     0.21   0.777
  SC_I-43                  104.90       0.00       0.00      27.77      51.94      24.75      76.69        2.59     0.97   0.731
  SC_I-44                  104.90       0.00       0.00      44.42      36.39      23.84      60.22        1.93     0.70   0.574
  SC_I-45                  104.90       0.00       0.00      45.07      36.38      23.18      59.57        1.12     0.41   0.568
  SC_I-46                  104.90       0.00       0.00      18.77      52.05      33.95      86.00        0.11     0.06   0.820
  SC_I-47                  104.90       0.00       0.00      27.45      51.94      25.07      77.01        2.75     1.03   0.734
  SC_I-48                  104.90       0.00       0.00      22.53      52.01      30.06      82.07        0.63     0.27   0.782
  SC_I-49                  104.90       0.00       0.00      28.20      51.93      24.31      76.24        3.75     1.39   0.727
  SC_I-50                  104.90       0.00       0.00      49.81      36.35      18.41      54.76        4.02     1.41   0.522
  SC_I-51                  104.90       0.00       0.00      22.95      52.01      29.63      81.63        0.39     0.17   0.778
  SC_I-52                  104.90       0.00       0.00      28.20      51.93      24.31      76.24        2.96     1.10   0.727
  SC_I-53                  104.90       0.00       0.00      24.88      51.98      27.66      79.64        0.96     0.38   0.759
  SC_I-54                  104.90       0.00       0.00      49.69      36.35      18.54      54.89        5.24     1.84   0.523
  SC_I-55                  104.90       0.00       0.00      25.32      51.97      27.22      79.20        1.30     0.51   0.755
  SC_I-56                  104.90       0.00       0.00      27.71      52.45      24.28      76.73        2.71     1.01   0.731
  SC_I-57                  104.90       0.00       0.00      27.43      51.94      25.09      77.03        2.59     0.97   0.734
  SC_I-58                  104.90       0.00       0.00      26.40      51.55      26.55      78.10        1.70     0.66   0.745
  SC_I-59                  104.90       0.00       0.00      25.81      51.97      26.72      78.69        1.37     0.53   0.750
  SC_I-60                  104.90       0.00       0.00      63.38      14.46      27.01      41.47        1.21     0.34   0.395
  SC_I-61                  104.90       0.00       0.00      73.72       0.00      31.26      31.26        1.13     0.31   0.298
  SC_I-63                  104.90       0.00       0.00      26.63      51.95      25.90      77.85        1.96     0.75   0.742
  SC_I-64                  104.90       0.00       0.00      24.61      51.98      27.94      79.93        0.85     0.34   0.762
  SC_I-65                  104.90       0.00       0.00      75.12       0.00      29.85      29.85        0.95     0.26   0.285
  SC_I-66                  104.90       0.00       0.00      36.03      36.43      32.35      68.78        0.29     0.12   0.656
  SC_I-67                  104.90       0.00       0.00      26.92      51.95      25.60      77.55        2.13     0.81   0.739
  SC_I-68                  104.90       0.00       0.00      23.42      52.00      29.15      81.15        0.57     0.24   0.774
  SC_I-69                  104.90       0.00       0.00      23.87      59.17      21.29      80.47        3.34     1.26   0.767
  SC_I-71                  104.90       0.00       0.00      70.55       0.00      34.45      34.45        0.87     0.26   0.328
  SC_I-72                  104.90       0.00       0.00      25.69      51.97      26.85      78.82        1.02     0.40   0.751
  SC_I-73                  104.90       0.00       0.00      24.05      51.99      28.51      80.50        0.77     0.31   0.767
  SC_I-74                  104.90       0.00       0.00      25.03      51.98      27.51      79.49        0.91     0.36   0.758
  SC_I-75                  104.90       0.00       0.00      21.88      62.28      20.14      82.42        3.53     1.35   0.786
  SC_I-76                  104.90       0.00       0.00      25.40      51.56      27.56      79.12        0.82     0.32   0.754
  SC_I-77                  104.90       0.00       0.00      25.92      51.97      26.62      78.58        1.58     0.61   0.749
  SC_I-78                  104.90       0.00       0.00      76.12       0.00      28.85      28.85        0.62     0.16   0.275
  SC_I-79                  104.90       0.00       0.00      45.70      36.38      22.55      58.93        1.61     0.58   0.562
  SC_I-80                  104.90       0.00       0.00      40.83      36.41      27.47      63.88        0.70     0.27   0.609
  SC_I-81                  104.90       0.00       0.00      75.27       0.00      29.70      29.70        2.52     0.68   0.283
  SC_I-82                  104.90       0.00       0.00      27.65      55.01      21.70      76.71        4.36     1.57   0.731
  SC_I-83                  104.90       0.00       0.00      78.16       0.00      26.80      26.80        2.71     0.68   0.255
  SC_I-84                  104.90       0.00       0.00      44.43      36.39      23.83      60.22        0.91     0.33   0.574
  SC_I-85                  104.90       0.00       0.00      77.11       0.00      27.86      27.86        0.83     0.21   0.266
  SC_I-86                  104.90       0.00       0.00      46.29      36.38      21.96      58.33        1.37     0.49   0.556
  SC_I-87                  104.90       0.00       0.00      43.47      36.39      24.79      61.19        1.70     0.62   0.583
  SC_I-88                  104.90       0.00       0.00      48.59      36.36      19.64      56.00        3.15     1.11   0.534
  SC_I-89                  104.90       0.00       0.00      39.73      36.41      28.57      64.99        0.30     0.12   0.620
  SC_I-90                  104.90       0.00       0.00      45.87      36.38      22.38      58.75        1.63     0.59   0.560
  SC_I-91                  104.90       0.00       0.00      48.15      36.36      20.08      56.44        2.50     0.88   0.538
  SC_I-92                  104.90       0.00       0.00      48.78      36.36      19.45      55.81        3.44     1.21   0.532
  SC_I-93                  104.90       0.00       0.00      49.37      36.35      18.86      55.21        3.43     1.21   0.526
  SC_I-94                  104.90       0.00       0.00      47.48      36.37      20.75      57.12        2.30     0.82   0.545
  SC_I-95                  104.90       0.00       0.00      46.10      36.38      22.15      58.53        1.61     0.58   0.558
  SC_I-96                  104.90       0.00       0.00      49.50      36.35      18.72      55.08        4.17     1.46   0.525
  SC_I-97                  104.90       0.00       0.00      48.42      36.36      19.81      56.17        2.90     1.02   0.535
  SC_I-98                  104.90       0.00       0.00      59.40       3.55      42.11      45.66        0.15     0.05   0.435
  SC_I-99                  104.90       0.00       0.00      48.31      36.36      19.93      56.29        2.91     1.03   0.537
  SC_I-100                 104.90       0.00       0.00      34.53      40.07      30.16      70.22        0.67     0.28   0.669
  SC_I-101                 104.90       0.00       0.00      46.50      36.38      21.75      58.12        1.75     0.63   0.554
  SC_I-102                 104.90       0.00       0.00      49.23      35.02      20.37      55.38        3.70     1.30   0.528
  SC_I-103                 104.90       0.00       0.00      54.00      22.99      27.80      50.79        2.46     0.79   0.484
  SC_I-104                 104.90       0.00       0.00      44.12      36.39      24.14      60.53        1.22     0.45   0.577
  SC_I-105                 104.90       0.00       0.00      38.24      36.42      30.09      66.51        0.24     0.10   0.634
  SC_I-106                 104.90       0.00       0.00      45.31      36.38      22.94      59.33        2.84     1.03   0.566
  SC_I-107                 104.90       0.00       0.00      79.51       0.00      25.44      25.44        1.02     0.25   0.242
  SC_I-108                 104.90       0.00       0.00      41.04      36.41      27.25      63.66        0.98     0.37   0.607
  SC_I-109                 104.90       0.00       0.00      65.49       0.00      39.55      39.55        0.59     0.20   0.377
  SC_I-110                 104.90       0.00       0.00      49.40      36.35      18.82      55.18        3.76     1.32   0.526
  SC_I-111                 104.90       0.00       0.00      35.40      36.43      32.98      69.41        0.17     0.07   0.662
  SC_I-112                 104.90       0.00       0.00      37.71      36.42      30.63      67.05        0.50     0.20   0.639
  SC_I-113                 104.90       0.00       0.00      37.43      36.42      30.91      67.33        0.46     0.19   0.642
  SC_I-114                 104.90       0.00       0.00      79.73       0.00      25.22      25.22        1.29     0.31   0.240
  SC_I-115                 104.90       0.00       0.00      42.65      36.40      25.63      62.03        0.90     0.33   0.591
  SC_I-117                 104.90       0.00       0.00      23.98      53.74      26.78      80.52        2.03     0.81   0.768
  SC_I-118                 104.90       0.00       0.00      23.57      52.00      29.00      81.00        0.63     0.26   0.772
  SC_I-119                 104.90       0.00       0.00      45.82      36.38      22.43      58.81        3.82     1.37   0.561
  SC_I-120                 104.90       0.00       0.00      23.75      52.00      28.82      80.81        0.70     0.29   0.770
  SC_I-121                 104.90       0.00       0.00      15.35      62.24      27.03      89.26        0.08     0.04   0.851
  SC_I-122                 104.90       0.00       0.00      46.53      36.37      21.71      58.09        0.75     0.27   0.554
  SC_I-123                 104.90       0.00       0.00      61.98       0.00      43.09      43.09        0.34     0.13   0.411
  SC_I-124                 104.90       0.00       0.00      26.05      51.96      26.48      78.44        1.24     0.48   0.748
  SC_I-125                 104.90       0.00       0.00      26.13      51.96      26.40      78.36        1.53     0.59   0.747
  SC_I-126                 104.90       0.00       0.00      63.94      11.24      29.71      40.95        0.82     0.23   0.390
  SC_I-127                 104.90       0.00       0.00      47.25      36.37      20.99      57.36        2.78     0.99   0.547
  SC_I-128                 104.90       0.00       0.00      62.12      10.93      31.86      42.79        0.67     0.20   0.408
  SC_I-129                 104.90       0.00       0.00      59.94       0.00      45.16      45.16        0.26     0.10   0.431
  SC_I-130                 104.90       0.00       0.00       0.00     103.79       0.00     103.79        3.79     1.62   0.989
  SC_I-131                 104.90       0.00       0.00      34.42      41.98      28.17      70.15        2.05     0.72   0.669
  SC_I-132                 104.90       0.00       0.00      30.80      48.81      24.85      73.67        4.44     1.60   0.702
  SC_I-133                 104.90       0.00       0.00      39.79      36.41      28.52      64.93        0.55     0.21   0.619
  SC_I-134                 104.90       0.00       0.00      63.79       0.00      41.27      41.27        0.29     0.10   0.393
  SC_I-135                 104.90       0.00       0.00      34.20      36.43      34.22      70.65        0.09     0.04   0.674
  SC_I-136                 104.90       0.00       0.00      49.43      36.35      18.80      55.15        3.14     1.10   0.526
  SC_I-137                 104.90       0.00       0.00      78.45       0.00      26.51      26.51        1.02     0.25   0.253
  SC_I-138                 104.90       0.00       0.00      40.55      36.41      27.75      64.16        0.61     0.23   0.612
  SC_I-139                 104.90       0.00       0.00      42.27      36.40      26.01      62.41        0.72     0.27   0.595
  SC_I-140                 104.90       0.00       0.00      26.48      52.47      25.52      77.99        2.76     1.05   0.744
  SC_I-141                 104.90       0.00       0.00      80.90       0.00      24.04      24.04        1.32     0.31   0.229
  SC_I-142                 104.90       0.00       0.00      25.87      51.97      26.67      78.63        0.73     0.28   0.750
  SC_I-143                 104.90       0.00       0.00      22.56      52.01      30.03      82.04        0.52     0.22   0.782
  SC_ISD-1                 104.90       0.00       0.00      20.27      52.04      32.38      84.42        0.15     0.07   0.805
  SC_ISD-2                 104.90       0.00       0.00      20.73      52.03      31.91      83.94        0.18     0.08   0.800
  SC_ISD-3                 104.90       0.00       0.00      20.92      52.03      31.71      83.74        0.18     0.08   0.798
  SC_ISD-4                 104.90       0.00       0.00      20.67      52.03      31.97      84.01        0.15     0.07   0.801
  SC_ISD-5                 104.90       0.00       0.00      21.23      52.03      31.39      83.42        0.18     0.08   0.795
  SC_ISD-6                 104.90       0.00       0.00      21.25      52.03      31.38      83.40        0.18     0.08   0.795
  SC_ISD-7                 104.90       0.00       0.00      20.81      52.03      31.83      83.86        0.13     0.06   0.799
  SC_ISD-8                 104.90       0.00       0.00      21.54      52.02      31.08      83.10        0.18     0.08   0.792
  SC_ISD-9                 104.90       0.00       0.00      21.62      52.02      31.00      83.02        0.18     0.08   0.791
  SC_ISD-10                104.90       0.00       0.00      21.06      52.03      31.57      83.60        0.14     0.06   0.797
  SC_ISD-11                104.90       0.00       0.00      21.21      52.03      31.42      83.45        0.15     0.07   0.795
  SC_ISD-12                104.90       0.00       0.00      20.70      52.03      31.94      83.98        0.11     0.05   0.801
  SC_ISD-13                104.90       0.00       0.00      20.68      52.03      31.97      84.00        0.11     0.05   0.801
  SC_ISD-14                104.90       0.00       0.00      21.07      52.03      31.56      83.59        0.14     0.06   0.797
  SC_ISD-15                104.90       0.00       0.00      21.48      52.03      31.14      83.16        0.18     0.08   0.793
  SC_ISD-16                104.90       0.00       0.00      21.51      52.02      31.10      83.13        0.17     0.08   0.792
  SC_ISD-17                104.90       0.00       0.00      21.02      52.03      31.61      83.64        0.14     0.06   0.797
  SC_ISD-18                104.90       0.00       0.00      20.76      52.03      31.88      83.91        0.12     0.05   0.800
  SC_ISD-19                104.90       0.00       0.00      20.64      52.03      32.00      84.04        0.11     0.05   0.801
  SC_ISD-20                104.90       0.00       0.00      21.23      52.03      31.40      83.42        0.11     0.05   0.795
  SC_ISD-21                104.90       0.00       0.00      20.84      52.03      31.80      83.83        0.12     0.05   0.799
  SC_ISD-22                104.90       0.00       0.00      21.70      52.02      30.91      82.93        0.18     0.08   0.791
  SC_ISD-23                104.90       0.00       0.00      21.35      52.03      31.27      83.29        0.15     0.07   0.794
  SC_ISD-24                104.90       0.00       0.00      20.73      52.03      31.91      83.95        0.11     0.05   0.800
  SC_ISD-25                104.90       0.00       0.00      20.75      52.03      31.88      83.92        0.11     0.05   0.800
  SC_ISD-26                104.90       0.00       0.00      20.74      52.03      31.90      83.93        0.11     0.05   0.800
  SC_ISD-27                104.90       0.00       0.00      21.57      52.02      31.04      83.06        0.18     0.08   0.792
  SC_ISD-28                104.90       0.00       0.00      21.19      52.03      31.43      83.46        0.15     0.07   0.796
  SC_ISD-29                104.90       0.00       0.00      20.02      52.04      32.65      84.69        0.08     0.04   0.807
  SC_ISD-30                104.90       0.00       0.00      20.31      52.04      32.34      84.38        0.08     0.04   0.804
  SC_ISD-31                104.90       0.00       0.00      20.33      52.04      32.33      84.37        0.09     0.04   0.804
  SC_ISD-32                104.90       0.00       0.00      20.54      52.04      32.10      84.14        0.11     0.05   0.802
  SC_ISD-33                104.90       0.00       0.00      20.57      52.04      32.07      84.11        0.11     0.05   0.802
  SC_ISD-34                104.90       0.00       0.00      20.28      52.04      32.38      84.42        0.09     0.04   0.805
  SC_ISD-35                104.90       0.00       0.00      20.77      52.03      31.87      83.90        0.11     0.05   0.800
  SC_ISD-36                104.90       0.00       0.00      21.09      52.03      31.53      83.56        0.12     0.05   0.797
  SC_ISD-37                104.90       0.00       0.00      20.58      52.04      32.07      84.10        0.09     0.04   0.802
  SC_ISD-38                104.90       0.00       0.00      21.06      52.03      31.57      83.60        0.12     0.05   0.797
  SC_ISD-39                104.90       0.00       0.00      20.44      52.04      32.21      84.24        0.09     0.04   0.803
  SC_ISD-40                104.90       0.00       0.00      21.02      52.03      31.61      83.64        0.11     0.05   0.797
  SC_ISD-41                104.90       0.00       0.00      20.44      52.04      32.21      84.25        0.10     0.05   0.803
  SC_ISD-42                104.90       0.00       0.00      20.46      52.04      32.19      84.23        0.11     0.05   0.803
  SC_ISD-43                104.90       0.00       0.00      20.25      52.04      32.41      84.44        0.11     0.05   0.805
  SC_ISD-44                104.90       0.00       0.00      19.86      52.04      32.81      84.85        0.09     0.04   0.809
  SC_ISD-45                104.90       0.00       0.00      20.34      52.04      32.31      84.35        0.12     0.06   0.804
  SC_ISD-46                104.90       0.00       0.00      20.08      52.04      32.58      84.62        0.11     0.05   0.807
  SC_ISD-47                104.90       0.00       0.00      19.90      52.04      32.78      84.82        0.09     0.05   0.809
  SC_ISD-48                104.90       0.00       0.00      21.27      52.03      31.35      83.38        0.20     0.09   0.795
  SC_ISD-49                104.90       0.00       0.00      21.27      52.03      31.35      83.38        0.20     0.09   0.795
  SC_ISD-50                104.90       0.00       0.00      20.70      52.03      31.94      83.98        0.12     0.06   0.801
  SC_ISD-51                104.90       0.00       0.00      20.85      52.03      31.78      83.81        0.16     0.07   0.799
  SC_ISD-52                104.90       0.00       0.00      20.80      52.03      31.83      83.87        0.15     0.07   0.799
  SC_ISD-53                104.90       0.00       0.00      20.43      52.04      32.22      84.26        0.11     0.05   0.803
  SC_ISD-54                104.90       0.00       0.00      20.38      52.04      32.27      84.31        0.10     0.05   0.804
  SC_ISD-55                104.90       0.00       0.00      20.63      52.03      32.01      84.05        0.11     0.05   0.801
  SC_ISD-56                104.90       0.00       0.00      20.85      52.03      31.79      83.82        0.10     0.05   0.799
  SC_ISD-57                104.90       0.00       0.00      20.32      52.04      32.34      84.38        0.10     0.05   0.804
  SC_ISD-58                104.90       0.00       0.00      20.81      52.03      31.83      83.86        0.15     0.07   0.799
  SC_ISD-59                104.90       0.00       0.00      20.69      52.03      31.95      83.99        0.16     0.07   0.801
  SC_ISD-60                104.90       0.00       0.00      19.71      52.04      32.97      85.01        0.11     0.05   0.810
  SC_ISD-61                104.90       0.00       0.00      19.62      52.04      33.06      85.11        0.11     0.05   0.811
  SC_ISD-62                104.90       0.00       0.00      19.53      51.94      33.26      85.20        0.11     0.05   0.812
  SC_ISD-63                104.90       0.00       0.00      19.28      52.05      33.41      85.46        0.10     0.05   0.815
  SC_ISD-64                104.90       0.00       0.00      19.38      52.05      33.31      85.36        0.11     0.05   0.814
  SC_ISD-65                104.90       0.00       0.00      23.59      51.28      29.72      81.00        0.56     0.23   0.772
  SC_ISD-66                104.90       0.00       0.00      67.50       0.00      37.52      37.52        0.44     0.14   0.358
  SC_ISD-67                104.90       0.00       0.00      37.43      36.42      30.91      67.33        0.53     0.21   0.642
  SC_ISD-68                104.90       0.00       0.00      34.11      36.43      34.31      70.74        0.26     0.12   0.674
  SC_ISD-69                104.90       0.00       0.00      40.10      36.41      28.20      64.61        0.43     0.16   0.616
  SC_ISD-70                104.90       0.00       0.00      33.48      36.44      34.96      71.40        0.23     0.10   0.681
  SC_ISD-71                104.90       0.00       0.00      34.67      36.43      33.73      70.16        0.26     0.12   0.669
  SC_ISD-72                104.90       0.00       0.00      34.31      36.43      34.11      70.54        0.21     0.09   0.672
  SC_ISD-73                104.90       0.00       0.00      34.74      36.43      33.67      70.10        0.19     0.08   0.668
  SC_ISD-74                104.90       0.00       0.00      34.66      36.43      33.75      70.18        0.15     0.07   0.669
  SC_ISD-75                104.90       0.00       0.00      34.84      36.43      33.56      70.00        0.14     0.06   0.667
  SC_ISD-76                104.90       0.00       0.00      34.84      36.43      33.56      69.99        0.12     0.05   0.667
  SC_ISD-77                104.90       0.00       0.00      35.73      36.43      32.65      69.08        0.15     0.06   0.659
  SC_ISD-78                104.90       0.00       0.00      36.02      36.43      32.36      68.79        0.15     0.06   0.656
  SC_ISD-79                104.90       0.00       0.00      34.95      36.43      33.45      69.88        0.10     0.04   0.666
  SC_ISD-80                104.90       0.00       0.00      35.23      36.43      33.16      69.59        0.11     0.05   0.663
  SC_ISD-81                104.90       0.00       0.00      35.20      36.43      33.20      69.63        0.11     0.05   0.664
  SC_ISD-82                104.90       0.00       0.00      34.59      36.43      33.82      70.25        0.09     0.04   0.670
  SC_ISD-83                104.90       0.00       0.00      33.96      36.43      34.46      70.90        0.08     0.04   0.676
  SC_ISD-84                104.90       0.00       0.00      34.08      36.43      34.34      70.77        0.08     0.04   0.675
  SC_ISD-85                104.90       0.00       0.00      34.39      36.43      34.02      70.46        0.10     0.04   0.672
  SC_ISD-86                104.90       0.00       0.00      35.04      36.43      33.36      69.79        0.10     0.04   0.665
  SC_ISD-87                104.90       0.00       0.00      36.47      36.43      31.89      68.32        0.09     0.04   0.651
  SC_ISD-88                104.90       0.00       0.00      34.60      36.43      33.81      70.24        0.10     0.04   0.670
  SC_ISD-89                104.90       0.00       0.00      35.27      36.43      33.12      69.55        0.09     0.04   0.663
  SC_ISD-90                104.90       0.00       0.00      34.43      36.43      33.99      70.42        0.13     0.06   0.671
  SC_ISD-91                104.90       0.00       0.00      34.28      36.43      34.14      70.57        0.14     0.06   0.673
  SC_ISD-92                104.90       0.00       0.00      33.30      36.44      35.15      71.59        0.10     0.05   0.682
  SC_ISD-93                104.90       0.00       0.00      32.95      36.44      35.51      71.94        0.09     0.04   0.686
  SC_ISD-94                104.90       0.00       0.00      32.86      36.44      35.60      72.03        0.09     0.04   0.687
  SC_ISD-95                104.90       0.00       0.00      33.00      36.44      35.46      71.89        0.10     0.05   0.685
  SC_ISD-96                104.90       0.00       0.00      32.83      36.44      35.63      72.06        0.10     0.04   0.687
  SC_ISD-97                104.90       0.00       0.00      32.82      36.44      35.64      72.07        0.10     0.04   0.687
  SC_ISD-98                104.90       0.00       0.00      32.81      36.44      35.65      72.08        0.10     0.04   0.687
  SC_ISD-99                104.90       0.00       0.00      33.03      36.44      35.43      71.86        0.10     0.05   0.685
  SC_ISD-100               104.90       0.00       0.00      33.07      36.44      35.38      71.82        0.10     0.05   0.685
  SC_ISD-101               104.90       0.00       0.00      34.06      36.43      34.36      70.80        0.14     0.06   0.675
  SC_ISD-102               104.90       0.00       0.00      34.02      36.43      34.41      70.84        0.14     0.06   0.675
  SC_ISD-103               104.90       0.00       0.00      33.05      36.44      35.41      71.84        0.09     0.04   0.685
  SC_ISD-104               104.90       0.00       0.00      33.19      36.44      35.26      71.69        0.10     0.04   0.683
  SC_ISD-105               104.90       0.00       0.00      33.36      36.44      35.09      71.52        0.10     0.05   0.682
  SC_ISD-106               104.90       0.00       0.00      34.61      36.43      33.80      70.23        0.15     0.06   0.670
  SC_ISD-107               104.90       0.00       0.00      34.86      36.43      33.54      69.97        0.14     0.06   0.667
  SC_ISD-108               104.90       0.00       0.00      56.29       0.00      48.88      48.88        0.07     0.03   0.466
  SC_ISD-109               104.90       0.00       0.00      78.25       0.00      26.71      26.71        1.42     0.35   0.255
  SC_ISD-110               104.90       0.00       0.00      41.18      26.34      37.40      63.74        0.11     0.05   0.608
  SC_ISD-111               104.90       0.00       0.00      46.73      16.17      42.16      58.33        0.09     0.04   0.556
  SC_ISD-112               104.90       0.00       0.00      34.66      37.58      32.58      70.16        0.12     0.05   0.669
  SC_ISD-113               104.90       0.00       0.00      23.86      44.34      36.57      80.91        0.11     0.05   0.771
  SC_ISD-114               104.90       0.00       0.00      22.31      48.29      34.11      82.40        0.12     0.05   0.786
  SC_ISD-115               104.90       0.00       0.00      21.56      50.89      32.23      83.11        0.14     0.06   0.792
  SC_ISD-116               104.90       0.00       0.00      21.11      51.82      31.73      83.55        0.14     0.06   0.797
  SC_ISD-117               104.90       0.00       0.00      21.59      52.13      30.92      83.04        0.17     0.08   0.792
  SC_ISD-118               104.90       0.00       0.00      21.58      52.23      30.83      83.06        0.17     0.07   0.792
  SC_ISD-119               104.90       0.00       0.00      21.33      52.13      31.19      83.32        0.15     0.07   0.794
  SC_ISD-120               104.90       0.00       0.00      21.31      52.03      31.31      83.33        0.14     0.06   0.794
  SC_ISD-121               104.90       0.00       0.00      21.84      52.02      30.76      82.79        0.18     0.08   0.789
  SC_ISD-122               104.90       0.00       0.00      21.85      52.02      30.75      82.78        0.17     0.08   0.789
  SC_ISD-123               104.90       0.00       0.00      21.25      52.03      31.38      83.40        0.13     0.06   0.795
  SC_ISD-124               104.90       0.00       0.00      21.34      52.03      31.28      83.31        0.14     0.06   0.794
  SC_ISD-125               104.90       0.00       0.00      20.97      52.03      31.66      83.69        0.12     0.05   0.798
  SC_ISD-126               104.90       0.00       0.00      20.87      52.03      31.77      83.80        0.11     0.05   0.799
  SC_ISD-127               104.90       0.00       0.00      21.26      52.03      31.36      83.39        0.14     0.06   0.795
  SC_ISD-128               104.90       0.00       0.00      22.12      52.02      30.47      82.49        0.21     0.09   0.786
  SC_ISD-129               104.90       0.00       0.00      21.82      52.02      30.79      82.81        0.18     0.08   0.789
  SC_ISD-130               104.90       0.00       0.00      20.93      52.03      31.71      83.74        0.11     0.05   0.798
  SC_ISD-131               104.90       0.00       0.00      21.29      52.03      31.33      83.36        0.14     0.06   0.795
  SC_ISD-132               104.90       0.00       0.00      21.27      52.03      31.35      83.38        0.13     0.06   0.795
  SC_ISD-133               104.90       0.00       0.00      21.41      52.03      31.21      83.23        0.13     0.06   0.793
  SC_ISD-134               104.90       0.00       0.00      21.18      52.03      31.45      83.48        0.12     0.05   0.796
  SC_ISD-135               104.90       0.00       0.00      21.12      52.03      31.51      83.54        0.12     0.05   0.796
  SC_ISD-136               104.90       0.00       0.00      21.37      52.03      31.25      83.27        0.13     0.06   0.794
  SC_ISD-137               104.90       0.00       0.00      21.45      52.03      31.17      83.19        0.14     0.06   0.793
  SC_ISD-138               104.90       0.00       0.00      21.48      52.03      31.14      83.17        0.14     0.06   0.793
  SC_ISD-139               104.90       0.00       0.00      20.88      52.03      31.75      83.78        0.11     0.05   0.799
  SC_ISD-140               104.90       0.00       0.00      20.73      52.03      31.90      83.94        0.10     0.05   0.800
  SC_ISD-141               104.90       0.00       0.00      21.26      52.03      31.37      83.40        0.14     0.06   0.795
  SC_ISD-142               104.90       0.00       0.00      21.69      52.02      30.92      82.94        0.18     0.08   0.791
  SC_ISD-143               104.90       0.00       0.00      21.61      52.02      31.01      83.03        0.18     0.08   0.792
  SC_ISD-144               104.90       0.00       0.00      21.15      52.03      31.48      83.50        0.15     0.07   0.796
  SC_ISD-145               104.90       0.00       0.00      21.08      52.03      31.55      83.58        0.14     0.07   0.797
  SC_ISD-146               104.90       0.00       0.00      21.00      52.03      31.63      83.66        0.14     0.06   0.798
  SC_ISD-147               104.90       0.00       0.00      21.47      52.03      31.15      83.17        0.18     0.08   0.793
  SC_ISD-148               104.90       0.00       0.00      21.47      52.03      31.15      83.17        0.19     0.08   0.793
  SC_ISD-149               104.90       0.00       0.00      20.81      52.03      31.83      83.87        0.14     0.06   0.799
  SC_ISD-150               104.90       0.00       0.00      20.84      52.03      31.80      83.83        0.14     0.06   0.799
  SC_ISD-151               104.90       0.00       0.00      22.85      52.01      29.73      81.74        0.35     0.15   0.779
  SC_ISD-152               104.90       0.00       0.00      42.08      36.40      26.20      62.60        0.50     0.19   0.597
  SC_ISD-153               104.90       0.00       0.00      39.52      36.42      28.79      65.20        0.36     0.14   0.622
  SC_ISD-154               104.90       0.00       0.00      36.09      36.43      32.28      68.71        0.16     0.07   0.655
  SC_ISD-155               104.90       0.00       0.00       0.00     103.98       0.00     103.98        0.26     0.13   0.991
  SC_ISD-156               104.90       0.00       0.00       0.75     100.46       2.86     103.31        0.23     0.11   0.985
  SC_ISD-157               104.90       0.00       0.00       3.32      89.97      10.95     100.91        0.22     0.11   0.962
  SC_ISD-158               104.90       0.00       0.00       6.10      79.99      18.27      98.26        0.24     0.12   0.937
  SC_ISD-159               104.90       0.00       0.00       4.21      86.54      13.53     100.07        0.22     0.11   0.954
  SC_ISD-160               104.90       0.00       0.00      16.99      59.94      27.67      87.61        0.14     0.07   0.835
  SC_ISD-161               104.90       0.00       0.00      18.19      56.92      29.52      86.45        0.12     0.06   0.824
  SC_ISD-162               104.90       0.00       0.00      19.81      54.84      29.98      84.81        0.17     0.08   0.809
  SC_ISD-163               104.90       0.00       0.00      20.79      53.38      30.46      83.84        0.18     0.08   0.799
  SC_ISD-164               104.90       0.00       0.00      20.36      52.35      31.98      84.32        0.11     0.05   0.804
  SC_ISD-165               104.90       0.00       0.00      20.44      52.55      31.67      84.23        0.12     0.06   0.803
  SC_ISD-166               104.90       0.00       0.00      20.96      52.13      31.56      83.70        0.14     0.06   0.798
  SC_ISD-167               104.90       0.00       0.00      20.94      52.03      31.69      83.72        0.13     0.06   0.798
  SC_ISD-168               104.90       0.00       0.00      23.26      52.00      29.32      81.32        0.35     0.15   0.775
  SC_ISD-169               104.90       0.00       0.00      23.74      52.00      28.82      80.82        0.41     0.17   0.770
  SC_ISD-170               104.90       0.00       0.00      21.84      52.02      30.77      82.79        0.21     0.09   0.789
  SC_ISD-171               104.90       0.00       0.00      21.02      52.03      31.61      83.64        0.18     0.08   0.797
  SC_ISD-172               104.90       0.00       0.00      20.98      52.03      31.65      83.68        0.15     0.07   0.798
  SC_ISD-173               104.90       0.00       0.00      20.93      52.03      31.70      83.73        0.14     0.06   0.798
  SC_ISD-174               104.90       0.00       0.00      20.86      52.03      31.78      83.81        0.14     0.06   0.799
  SC_ISD-175               104.90       0.00       0.00      22.01      52.02      30.59      82.61        0.25     0.11   0.788
  SC_ISD-176               104.90       0.00       0.00      22.04      52.02      30.56      82.58        0.24     0.11   0.787
  SC_ISD-177               104.90       0.00       0.00      21.07      52.03      31.56      83.59        0.15     0.07   0.797
  SC_ISD-178               104.90       0.00       0.00      20.88      52.03      31.75      83.78        0.15     0.07   0.799
  SC_ISD-179               104.90       0.00       0.00      20.96      52.03      31.68      83.71        0.14     0.06   0.798
  SC_ISD-180               104.90       0.00       0.00      20.78      52.03      31.86      83.89        0.13     0.06   0.800
  SC_ISD-181               104.90       0.00       0.00      21.25      52.03      31.38      83.40        0.18     0.08   0.795
  SC_ISD-182               104.90       0.00       0.00      21.17      52.03      31.45      83.48        0.18     0.08   0.796
  SC_ISD-183               104.90       0.00       0.00      20.66      52.03      31.98      84.01        0.13     0.06   0.801
  SC_ISD-184               104.90       0.00       0.00      21.54      52.02      31.07      83.09        0.21     0.09   0.792
  SC_ISD-185               104.90       0.00       0.00      21.56      52.02      31.06      83.08        0.21     0.09   0.792
  SC_ISD-186               104.90       0.00       0.00      20.74      52.03      31.90      83.94        0.14     0.07   0.800
  SC_ISD-187               104.90       0.00       0.00      20.81      52.03      31.83      83.86        0.16     0.07   0.799
  SC_ISD-188               104.90       0.00       0.00      21.25      52.03      31.37      83.40        0.22     0.10   0.795
  SC_ISD-189               104.90       0.00       0.00      21.04      52.03      31.59      83.62        0.22     0.10   0.797
  SC_ISD-190               104.90       0.00       0.00      20.20      52.04      32.46      84.50        0.16     0.08   0.806
  SC_ISD-191               104.90       0.00       0.00      20.36      52.04      32.30      84.33        0.18     0.08   0.804
  SC_ISD-192               104.90       0.00       0.00      20.90      52.03      31.73      83.77        0.23     0.11   0.799
  SC_ISD-193               104.90       0.00       0.00      21.42      52.03      31.20      83.23        0.28     0.13   0.793
  SC_ISD-194               104.90       0.00       0.00      20.70      52.03      31.94      83.98        0.20     0.09   0.801
  SC_ISD-195               104.90       0.00       0.00      20.99      52.03      31.64      83.67        0.22     0.10   0.798
  SC_ISD-196               104.90       0.00       0.00      21.64      52.02      30.98      83.00        0.28     0.12   0.791
  SC_ISD-197               104.90       0.00       0.00      21.31      52.03      31.31      83.34        0.20     0.09   0.794
  SC_ISD-198               104.90       0.00       0.00      21.53      52.02      31.08      83.11        0.18     0.08   0.792
  SC_ISD-199               104.90       0.00       0.00      23.39      52.00      29.18      81.18        0.34     0.14   0.774
  SC_ISD-200               104.90       0.00       0.00      23.23      52.00      29.35      81.35        0.31     0.13   0.776
  SC_ISD-201               104.90       0.00       0.00      21.11      52.03      31.52      83.55        0.12     0.06   0.796
  SC_ISD-202               104.90       0.00       0.00      20.91      52.03      31.72      83.76        0.12     0.05   0.798
  SC_ISD-203               104.90       0.00       0.00      21.07      52.03      31.56      83.59        0.13     0.06   0.797
  SC_ISD-204               104.90       0.00       0.00      21.27      52.03      31.35      83.38        0.15     0.07   0.795
  SC_ISD-205               104.90       0.00       0.00      21.24      52.03      31.39      83.41        0.14     0.06   0.795
  SC_ISD-206               104.90       0.00       0.00      20.73      52.03      31.91      83.94        0.11     0.05   0.800
  SC_ISD-207               104.90       0.00       0.00      20.64      52.03      32.00      84.03        0.10     0.05   0.801
  SC_ISD-208               104.90       0.00       0.00      20.97      52.03      31.66      83.69        0.12     0.05   0.798
  SC_ISD-209               104.90       0.00       0.00      21.36      52.03      31.26      83.29        0.15     0.07   0.794
  SC_ISD-210               104.90       0.00       0.00      21.21      52.03      31.42      83.44        0.13     0.06   0.795
  SC_ISD-211               104.90       0.00       0.00      20.88      52.03      31.75      83.78        0.11     0.05   0.799
  SC_ISD-212               104.90       0.00       0.00      21.36      52.03      31.26      83.28        0.13     0.06   0.794
  SC_ISD-213               104.90       0.00       0.00      21.99      52.02      30.61      82.63        0.17     0.07   0.788
  SC_ISD-215               104.90       0.00       0.00      20.54      52.04      32.11      84.15        0.23     0.11   0.802
  SC_ISD-216               104.90       0.00       0.00      20.18      52.04      32.48      84.52        0.22     0.10   0.806
  SC_ISD-217               104.90       0.00       0.00      19.56      52.04      33.12      85.17        0.14     0.07   0.812
  SC_ISD-218               104.90       0.00       0.00      20.17      52.04      32.49      84.53        0.18     0.08   0.806
  SC_ISD-219               104.90       0.00       0.00      21.32      52.03      31.30      83.33        0.25     0.11   0.794
  SC_ISD-220               104.90       0.00       0.00      21.62      52.02      31.00      83.02        0.26     0.11   0.791
  SC_ISD-221               104.90       0.00       0.00      21.42      52.03      31.20      83.23        0.21     0.10   0.793
  SC_ISD-222               104.90       0.00       0.00      21.01      52.03      31.62      83.65        0.16     0.07   0.797
  SC_ISD-223               104.90       0.00       0.00      20.28      52.04      32.38      84.42        0.11     0.05   0.805
  SC_ISD-224               104.90       0.00       0.00      19.99      52.04      32.67      84.72        0.10     0.05   0.808
  SC_ISD-225               104.90       0.00       0.00      20.23      52.04      32.42      84.46        0.11     0.05   0.805
  SC_ISD-226               104.90       0.00       0.00      21.32      52.03      31.30      83.33        0.21     0.09   0.794
  SC_ISD-227               104.90       0.00       0.00      21.64      52.02      30.98      83.00        0.23     0.10   0.791
  SC_ISD-228               104.90       0.00       0.00      20.79      52.03      31.85      83.88        0.14     0.06   0.800
  SC_ISD-229               104.90       0.00       0.00      20.11      52.04      32.55      84.59        0.10     0.05   0.806
  SC_ISD-230               104.90       0.00       0.00      20.97      52.03      31.66      83.69        0.15     0.07   0.798
  SC_ISD-231               104.90       0.00       0.00      20.99      52.03      31.64      83.67        0.16     0.07   0.798
  SC_ISD-232               104.90       0.00       0.00      21.12      52.03      31.51      83.54        0.17     0.08   0.796
  SC_ISD-233               104.90       0.00       0.00      20.45      52.04      32.20      84.23        0.11     0.05   0.803
  SC_ISD-234               104.90       0.00       0.00      21.56      52.02      31.06      83.08        0.21     0.09   0.792
  SC_ISD-235               104.90       0.00       0.00      21.69      52.02      30.92      82.94        0.21     0.09   0.791
  SC_ISD-236               104.90       0.00       0.00      21.35      52.03      31.27      83.30        0.17     0.08   0.794
  SC_ISD-237               104.90       0.00       0.00      21.55      52.02      31.07      83.09        0.17     0.08   0.792
  SC_ISD-238               104.90       0.00       0.00      20.49      52.04      32.16      84.19        0.11     0.05   0.803
  SC_ISD-239               104.90       0.00       0.00      22.29      52.02      30.30      82.32        0.22     0.10   0.785
  SC_ISD-240               104.90       0.00       0.00      22.12      52.02      30.48      82.50        0.21     0.09   0.786
  SC_ISD-241               104.90       0.00       0.00      21.74      52.02      30.87      82.90        0.20     0.09   0.790
  SC_ISD-242               104.90       0.00       0.00      21.59      52.02      31.02      83.04        0.21     0.09   0.792
  SC_ISD-243               104.90       0.00       0.00      21.52      52.02      31.09      83.12        0.18     0.08   0.792
  SC_ISD-244               104.90       0.00       0.00      21.30      52.03      31.32      83.34        0.14     0.06   0.795
  SC_ISD-245               104.90       0.00       0.00      22.20      52.02      30.40      82.41        0.22     0.10   0.786
  SC_ISD-246               104.90       0.00       0.00      21.30      52.03      31.32      83.34        0.18     0.08   0.795
  SC_ISD-247               104.90       0.00       0.00      22.32      52.01      30.27      82.29        0.33     0.14   0.784
  SC_ISD-248               104.90       0.00       0.00      20.66      52.03      31.98      84.01        0.15     0.07   0.801
  SC_ISD-249               104.90       0.00       0.00      21.64      52.02      30.97      83.00        0.26     0.12   0.791
  SC_ISD-250               104.90       0.00       0.00      20.31      52.04      32.35      84.38        0.12     0.06   0.804
  SC_ISD-251               104.90       0.00       0.00      20.82      52.03      31.82      83.85        0.17     0.08   0.799
  SC_ISD-252               104.90       0.00       0.00      21.82      52.02      30.78      82.80        0.25     0.11   0.789
  SC_ISD-253               104.90       0.00       0.00      23.49      52.41      28.66      81.07        0.45     0.19   0.773
  SC_ISD-254               104.90       0.00       0.00      21.16      53.89      29.55      83.43        0.22     0.10   0.795
  SC_ISD-255               104.90       0.00       0.00      23.14      52.21      29.22      81.43        0.37     0.15   0.776
  SC_ISD-256               104.90       0.00       0.00      24.89      49.61      30.10      79.70        0.42     0.17   0.760
  SC_ISD-257               104.90       0.00       0.00      50.57      22.17      32.10      54.27        0.35     0.12   0.517
  SC_ISD-258               104.90       0.00       0.00      39.83      36.41      28.48      64.89        0.41     0.16   0.619
  SC_ISD-259               104.90       0.00       0.00      39.22      36.42      29.10      65.52        0.39     0.15   0.625
  SC_ISD-260               104.90       0.00       0.00      38.60      36.42      29.72      66.14        0.35     0.14   0.631
  SC_ISD-261               104.90       0.00       0.00      36.54      36.43      31.82      68.25        0.19     0.08   0.651
  SC_ISD-262               104.90       0.00       0.00      34.54      36.43      33.87      70.30        0.10     0.04   0.670
  SC_ISD-263               104.90       0.00       0.00      33.29      36.44      35.16      71.59        0.06     0.03   0.682
  SC_ISD-264               104.90       0.00       0.00      34.66      36.43      33.75      70.18        0.09     0.04   0.669
  SC_ISD-265               104.90       0.00       0.00      39.73      36.41      28.57      64.99        0.39     0.15   0.620
  SC_ISD-266               104.90       0.00       0.00      40.07      36.41      28.23      64.65        0.39     0.15   0.616
  SC_ISD-267               104.90       0.00       0.00      41.66      36.40      26.63      63.03        0.60     0.22   0.601
  SC_ISD-268               104.90       0.00       0.00      43.22      36.40      25.05      61.45        0.91     0.33   0.586
  SC_ISD-269               104.90       0.00       0.00      41.40      36.41      26.88      63.29        0.63     0.24   0.603
  SC_ISD-270               104.90       0.00       0.00      37.72      36.42      30.62      67.04        0.23     0.09   0.639
  SC_ISD-271               104.90       0.00       0.00      38.57      36.42      29.75      66.17        0.27     0.11   0.631
  SC_ISD-272               104.90       0.00       0.00      38.80      36.42      29.52      65.94        0.22     0.09   0.629
  SC_ISD-273               104.90       0.00       0.00      20.22      51.31      33.19      84.50        0.10     0.05   0.806
  SC_ISD-274               104.90       0.00       0.00      20.54      49.76      34.45      84.21        0.08     0.04   0.803
  SC_ISD-275               104.90       0.00       0.00      23.66      44.55      36.56      81.11        0.11     0.05   0.773
  SC_ISD-276               104.90       0.00       0.00      35.31      35.08      34.46      69.54        0.09     0.04   0.663
  SC_ISD-277               104.90       0.00       0.00      43.53      21.86      39.57      61.43        0.08     0.03   0.586
  SC_ISD-278               104.90       0.00       0.00      55.13       3.97      46.02      49.99        0.07     0.03   0.477
  SC_ISD-279               104.90       0.00       0.00      57.92       0.00      47.22      47.22        0.07     0.03   0.450
  SC_ISD-280               104.90       0.00       0.00      57.85       0.00      47.29      47.29        0.06     0.03   0.451
  SC_ISD-281               104.90       0.00       0.00      34.96      36.43      33.44      69.87        0.09     0.04   0.666
  SC_ISD-282               104.90       0.00       0.00      35.27      36.43      33.11      69.55        0.10     0.04   0.663
  SC_ISD-283               104.90       0.00       0.00      34.56      36.43      33.85      70.28        0.08     0.03   0.670
  SC_ISD-285               104.90       0.00       0.00      36.51      36.43      31.85      68.28        0.15     0.06   0.651
  SC_ISD-286               104.90       0.00       0.00      36.55      36.43      31.81      68.24        0.16     0.07   0.650
  SC_ISD-287               104.90       0.00       0.00      36.59      36.43      31.77      68.20        0.16     0.06   0.650
  SC_ISD-288               104.90       0.00       0.00      34.92      36.43      33.48      69.92        0.09     0.04   0.667
  SC_ISD-289               104.90       0.00       0.00      34.57      36.43      33.83      70.27        0.08     0.04   0.670
  SC_ISD-290               104.90       0.00       0.00      34.73      36.43      33.67      70.11        0.09     0.04   0.668
  SC_ISD-291               104.90       0.00       0.00      35.11      36.43      33.29      69.72        0.10     0.04   0.665
  SC_ISD-292               104.90       0.00       0.00      34.82      36.43      33.58      70.01        0.09     0.04   0.667
  SC_ISD-293               104.90       0.00       0.00      34.79      36.43      33.61      70.04        0.09     0.04   0.668
  SC_ISD-294               104.90       0.00       0.00      36.24      36.43      32.12      68.55        0.13     0.05   0.654
  SC_ISD-295               104.90       0.00       0.00      36.94      36.43      31.41      67.84        0.15     0.06   0.647
  SC_ISD-296               104.90       0.00       0.00      36.68      36.43      31.68      68.11        0.14     0.06   0.649
  SC_ISD-297               104.90       0.00       0.00      36.60      36.43      31.76      68.19        0.15     0.06   0.650
  SC_ISD-298               104.90       0.00       0.00      35.33      36.43      33.06      69.49        0.10     0.05   0.662
  SC_ISD-299               104.90       0.00       0.00      34.86      36.43      33.54      69.97        0.09     0.04   0.667
  SC_ISD-300               104.90       0.00       0.00      34.65      36.43      33.75      70.18        0.09     0.04   0.669
  SC_ISD-301               104.90       0.00       0.00      34.65      36.43      33.75      70.19        0.09     0.04   0.669
  SC_ISD-302               104.90       0.00       0.00      35.30      36.43      33.09      69.52        0.12     0.05   0.663
  SC_ISD-303               104.90       0.00       0.00      34.44      36.43      33.98      70.41        0.09     0.04   0.671
  SC_ISD-304               104.90       0.00       0.00      34.96      36.43      33.44      69.87        0.12     0.05   0.666
  SC_ISD-305               104.90       0.00       0.00      34.02      36.43      34.41      70.84        0.08     0.04   0.675
  SC_ISD-306               104.90       0.00       0.00      34.39      36.43      34.02      70.46        0.10     0.05   0.672
  SC_ISD-307               104.90       0.00       0.00      32.68      36.44      35.80      72.23        0.06     0.03   0.689
  SC_ISD-308               104.90       0.00       0.00      34.84      36.43      33.56      69.99        0.11     0.05   0.667
  SC_ISD-309               104.90       0.00       0.00      35.51      36.43      32.87      69.30        0.15     0.06   0.661
  SC_ISD-310               104.90       0.00       0.00      34.93      36.43      33.47      69.90        0.11     0.05   0.666
  SC_ISD-311               104.90       0.00       0.00      35.14      36.43      33.26      69.69        0.12     0.05   0.664
  SC_ISD-312               104.90       0.00       0.00      35.17      36.43      33.23      69.66        0.12     0.05   0.664
  SC_ISD-313               104.90       0.00       0.00      35.06      36.43      33.34      69.77        0.12     0.05   0.665
  SC_ISD-314               104.90       0.00       0.00      35.01      36.43      33.39      69.82        0.11     0.05   0.666
  SC_ISD-315               104.90       0.00       0.00      34.96      36.43      33.44      69.87        0.11     0.05   0.666
[...]
  C_1051-C-90                 0.62      0.62      0.63      0.01         0.01
  C_1052-C-90                 0.63      0.63      0.64      0.01         0.01
  C_1053-C-90                 0.64      0.64      0.64      0.52         0.44
  C_1054-C-90                 0.64      0.64      0.65      0.51         0.33
  C_1055-C-90                 0.65      0.65      0.66      0.01         0.01
  C_1056-C-90                 0.66      0.66      0.66      0.64         0.59
  C_1057-C-90                 0.65      0.66      0.65      0.73         0.64
  C_1058-C-90                 0.65      0.65      0.67      0.01         0.01
  C_1059-C-90                 0.67      0.67      0.67      0.74         0.59
  C_1060-C-90                 0.66      0.67      0.66      0.74         0.51
  C_1061-C-90                 0.66      0.66      0.67      0.05         0.11
  C_1062-C-90                 0.66      0.67      0.67      0.23         0.39
  C_1063-C-90                 0.67      0.67      0.67      0.14         0.12
  C_1064-C-90                 0.64      0.64      0.67      0.82         0.01
  C_1065-C-90                 0.63      0.64      0.64      0.45         0.42
  C_1066-C-90                 0.64      0.64      0.68      0.01         0.01
  C_1067-C-90                 0.68      0.68      0.69      0.63         0.60
  C_1068-C-90                 0.69      0.69      0.72      0.57         0.49
  C_1069-C-90                 0.72      0.72      0.73      0.01         0.02
  C_1070-C-90                 0.73      0.73      0.74      0.54         0.44
  C_1071-C-90                 0.74      0.74      0.76      0.01         0.01
  C_1072-C-90                 0.76      0.76      0.77      0.46         0.39
  C_1073-C-90                 0.77      0.77      0.80      0.01         0.01
  C_1074-C-90                 0.80      0.80      0.81      0.65         0.66
  C_1075-C-90                 0.81      0.81      0.83      0.01         0.22
  C_1076-C-90                 0.83      0.83      0.88      0.01         0.10
  C_1077-C-90                 0.88      0.88      0.95      0.01         0.01
  C_1078-C-90                 0.95      0.95      0.96      0.80         0.80
  C_1079-C-90                 0.96      0.96      1.01      0.01         0.01
  C_1080-C-112                1.05      1.05      1.06      0.01         0.01
  C_1081-C-112                1.06      1.06      1.06      1.09         1.04
  C_1082-C-112                1.06      1.06      1.07      0.02         0.07
  C_1083-C-112                1.07      1.07      1.07      0.02         0.22
  C_1084-C-112                1.07      1.07      1.08      0.01         0.07
  C_1085-C-112                1.08      1.08      1.10      0.01         0.01
  C_1086-C-112                1.10      1.10      1.10      0.70         0.52
  C_1087-C-112                1.10      1.10      1.11      0.49         0.27
  C_1088-C-112                1.11      1.11      1.13      0.96         0.90
  C_1089-C-112                1.13      1.13      1.15      0.01         0.01
  C_1090-C-112                1.15      1.15      1.15      0.32         0.18
  C_1091-C-112                1.15      1.15      1.17      0.06         0.01
  C_1092-C-112                1.16      1.17      1.16      1.30         1.16
  C_1093-C-112                1.15      1.16      1.16      1.14         1.08
  C_1094-C-112                1.16      1.16      1.18      0.01         0.01
  C_1095-C-112                1.18      1.18      1.20      0.01         0.01
  C_1096-C-112                1.19      1.20      1.19      1.25         1.18
  C_1097-C-112                1.19      1.19      1.21      0.01         0.02
  C_1098-C-112                1.21      1.21      1.21      1.17         1.10
  C_1099-C-112                1.21      1.21      1.23      0.01         0.01
  C_1100-C-112                1.23      1.23      1.25      0.06         0.07
  C_1101-C-112                1.25      1.25      1.30      0.07         0.02
  C_1102-C-112                1.30      1.30      1.37      0.08         0.02
  C_1103-C-112                1.37      1.37      1.49      1.11         1.07
  C_1104-C-112                1.49      1.49      1.52      0.01         0.01
  C_1105-C-112                1.52      1.52      1.54      0.03         0.01
  C_1106-C-112                1.54      1.54      1.57      1.15         1.11
  C_1107-C-112                1.57      1.57      1.61      0.01         0.01
  C_1108-C-112                1.61      1.61      1.63      1.11         1.07
  C_1109-C-112                1.63      1.63      1.65      0.01         0.01
  C_1110-C-112                1.65      1.65      1.67      1.12         0.89
  C_1111-C-112                1.67      1.67      1.71      0.02         0.02
  C_1112-C-112                1.71      1.71      1.73      0.07         0.02
  C_1113-C-112                1.71      1.73      1.71      1.86         1.71
  C_1114-C-112                1.70      1.71      1.70      1.85         1.70
  C_1115-C-112                1.70      1.70      1.77      0.01         0.01
  C_1116-C-112                1.77      1.77      1.78      0.92         0.69
  C_1117-C-112                1.76      1.78      1.76      1.87         1.76
  C_1118-C-112                1.76      1.76      1.79      0.05         0.09
  C_1119-C-112                1.79      1.79      1.79      1.33         0.87
  C_1120-C-112                1.79      1.79      1.80      1.58         1.22
  C_1121-C-112                1.80      1.80      1.81      1.66         1.49
  C_1122-C-112                1.81      1.81      1.84      0.01         0.01
  C_1123-C-112                1.83      1.84      1.84      0.48         0.34
  C_1124-C-112                1.84      1.84      1.84      1.88         1.58
  C_1125-C-112                1.84      1.84      1.85      1.81         1.47
  C_1126-C-112                1.84      1.85      1.86      0.72         0.65
  C_1127-C-112                1.86      1.86      1.86      1.26         1.04
  C_1128-C-112                1.85      1.86      1.85      1.99         1.84
  C_1129-C-112                1.84      1.85      1.86      0.96         0.92
  C_1130-C-112                1.83      1.86      1.83      1.98         1.83
  C_1131-C-112                1.80      1.83      1.80      2.74         1.80
  C_1132-C-112                1.80      1.80      1.89      0.01         0.01
  C_1133-C-112                1.89      1.90      1.90      1.73         1.51
  C_1134-C-112                1.90      1.90      1.91      1.81         1.73
  C_1135-C-112                1.88      1.89      1.90      1.46         1.30
  C_1136-C-112                1.90      1.91      1.90      2.74         1.90
  C_1137-C-112                1.90      1.90      1.91      1.78         1.74
  C_1138-C-112                1.89      1.91      1.89      2.78         1.89
  C_1139-C-112                1.61      1.61      1.89      0.01         0.01
  C_1140-C-112                1.47      1.61      1.47      2.80         1.47
  C_1141-C-112                1.09      1.47      1.09      2.78         1.09
  C_1142-C-112                1.09      1.09      1.39      0.57         0.55
  C_1143-C-112                0.51      0.51      1.39      1.91         0.01
  C_1144-C-112                0.01      0.51      0.01      2.78         0.01
  C_1145-C-140                0.01      0.66      0.01      0.80         0.01
  C_1146-C-140                0.66      0.75      0.66      1.98         0.66
  C_1147-C-140                0.75      0.81      0.75      1.88         0.75
  C_1148-C-140                0.80      0.80      0.81      0.78         0.78
  C_1149-C-140                0.76      0.76      0.80      0.66         0.66
  C_1150-C-140                0.74      0.74      0.76      0.64         0.58
  C_1151-C-140                0.73      0.73      0.74      0.66         0.66
  C_1152-C-140                0.71      0.71      0.73      0.09         0.07
  C_1153-C-140                0.69      0.69      0.71      0.01         0.01
  C_1154-C-140                0.67      0.67      0.69      0.01         0.01
  C_1155-C-140                0.64      0.64      0.67      0.01         0.01
  C_1156-C-140                0.62      0.62      0.64      0.01         0.01
  C_1157-C-140                0.54      0.54      0.62      0.01         0.01
  C_1158-C-140                0.50      0.50      0.54      0.01         0.01
  C_1159-C-140                0.41      0.41      0.46      0.01         0.01
  C_1160-C-140                0.46      0.46      0.50      0.19         0.14
  C_1161-C-140                0.35      0.35      0.41      0.01         0.01
  C_1162-C-140                0.09      0.09      0.35      0.01         0.01
  C_1163-C-140                0.01      0.01      0.09      0.01         0.01
  C_1188-C-91                 0.01      0.01      0.20      0.01         0.01
  C_1189-C-91                 0.20      0.20      0.32      0.01         0.01
  C_1190-C-91                 0.32      0.32      0.42      0.01         0.01
  C_1191-C-91                 0.42      0.42      0.47      0.01         0.01
  C_1192-C-91                 0.47      0.47      0.52      0.01         0.01
  C_1193-C-91                 0.52      0.52      0.60      0.01         0.01
  C_1194-C-91                 0.57      0.60      0.57      0.69         0.57
  C_1195-C-91                 0.01      0.57      0.01      0.63         0.01
  C_1197-C-29                 0.96      1.06      0.96      1.64         0.95
  C_1198-C-29                 1.06      1.06      1.06      0.29         0.21
  C_1199-C-29                 1.04      1.04      1.06      0.01         0.01
  C_1200-C-29                 1.03      1.03      1.04      0.68         0.62
  C_1201-C-29                 1.02      1.02      1.03      0.98         0.97
  C_1202-C-29                 1.01      1.01      1.02      0.01         0.06
  C_1203-C-29                 0.99      0.99      1.01      0.92         0.73
  C_1204-C-29                 0.99      0.99      0.99      0.77         0.62
  C_1205-C-29                 0.99      0.99      0.99      0.25         0.39
  C_1206-C-29                 0.99      0.99      0.99      1.04         0.97
  C_1207-C-29                 0.99      0.99      0.99      0.26         0.17
  C_1208-C-29                 0.97      0.97      0.99      0.01         0.01
  C_1209-C-29                 0.97      0.97      0.97      0.99         0.96
  C_1210-C-29                 0.95      0.95      0.97      0.01         0.01
  C_1211-C-29                 0.93      0.93      0.95      0.01         0.42
  C_1212-C-29                 0.91      0.91      0.93      0.86         0.86
  C_1213-C-29                 0.88      0.88      0.91      0.01         0.01
  C_1214-C-29                 0.60      0.60      0.70      0.01         0.01
  C_1215-C-29                 0.33      0.33      0.60      0.01         0.01
  C_1222-C-29                 0.01      0.01      0.01      0.63         0.01
  C_1236-C-100                0.01      0.01      0.01      0.33         0.01
  C_1237-C-30                 0.01      0.01      0.01      0.07         0.01
  C_1239-C-100                0.01      0.01      0.08      0.90         0.01
  C_1249-C-124                0.01      0.01      0.25      0.01         0.01
  C_1250-C-124                0.05      0.05      0.25      0.01         0.01
  C_1251-C-124                0.01      0.01      0.05      0.01         0.01
  C_1257-C-124                0.01      0.01     23.68      0.01         0.01
  C_1258-C-124               23.68     23.68     23.69      0.01         0.01
  C_1259-C-95                 0.01     23.72      0.01      0.01         0.01
  C_1260-C-85                23.69     23.69     23.69      0.10         3.06
  C_1261-C-85                23.69     23.69     23.69      0.01         0.01
  C_1262-C-85                23.68     23.68     23.69      0.01         0.01
  C_1263-C-85                 0.62      0.62     23.68      0.01         0.01
  C_1264-C-85                 0.55      0.59      0.62      0.24         0.22
  C_1265-C-85                 0.46      0.46      0.59      0.01         0.01
  C_1266-C-85                 0.17      0.17      0.46      0.01         0.01
  C_1267-C-85                 0.01      0.01      0.17      0.01         0.01
  C_1279-C-35                 0.01      0.01      0.01      0.88         0.01
  C_1280-C-35                 0.01      0.01      0.01      1.19         0.01
  C_1281-C-35                 0.01      0.01      0.46      0.65         0.01
  C_1282-C-35                 0.33      0.33      0.46      0.01         0.01
  C_1283-C-35                 0.01      0.01      0.33      0.01         0.01
  C_1284-C-35                 0.01      0.09      0.01      0.24         0.01
  C_1285-C-35                 0.01      0.01      0.09      0.01         0.01
  C_1286-C-35                 0.01      0.07      0.01      0.20         0.01
  C_1287-C-35                 0.01      0.01      0.07      0.01         0.01
  C_1288-C-35                 0.01      0.01      0.01      0.07         0.01
  C_1291-C-35                 0.01      0.01      0.01      0.58         0.01
  C_1293-C-35                 0.01      0.01      0.01      0.08         0.01
  C_1294-C-35                 0.01      0.01      0.01      0.25         0.01
  C_1295-C-35                 0.01      0.01      0.01      0.35         0.01
  C_1322-C-35                 0.01      0.01      0.01      0.06         0.01
  C_1325-C-42                 0.01      0.01      0.01      0.63         0.01
  C_1339-C-42                 0.01      0.01      0.01      0.01         0.01
  C_1340-C-42                 0.01      0.01      0.27      0.01         0.01
  C_1341-C-42                 0.26      0.27      0.42      0.01         0.01
  C_1342-C-42                 0.42      0.42      0.85      0.01         0.03
  C_1343-C-42                 0.85      0.85      0.99      0.01         0.04
  C_1344-C-42                 0.99      0.99      1.03      0.15         0.20
  C_1345-C-42                 1.03      1.03      1.17      0.01         0.01
  C_1346-C-42                 1.17      1.17      1.19      0.01         0.03
  C_1347-C-42                 1.19      1.19      1.19      0.87         0.38
  C_1348-C-42                 1.19      1.19      1.19      0.94         0.34
  C_1349-C-42                 1.19      1.19      1.36      0.01         0.01
  C_1350-C-89                 1.84      1.84      1.87      0.03         0.17
  C_1351-C-89                 1.87      1.87      1.87      1.14         0.36
  C_1352-C-89                 1.69      1.69      1.87      0.01         0.01
  C_1353-C-89                 1.51      1.51      1.69      0.22         0.23
  C_1354-C-89                 1.45      1.45      1.51      0.01         0.01
  C_1355-C-89                 1.35      1.35      1.45      0.01         0.01
  C_1356-C-89                 1.35      1.35      1.35      1.50         0.56
  C_1357-C-89                 1.21      1.21      1.35      0.01         0.01
  C_1358-C-89                 1.21      1.21      1.22      0.34         0.48
  C_1359-C-89                 1.20      1.22      1.20      1.29         1.19
  C_1360-C-89                 1.20      1.20      1.43      0.01         0.01
  C_1361-C-89                 1.43      1.43      9.48      0.01         0.01
  C_1362-C-89                 9.48      9.48     23.73      0.01         0.01
  C_1363-C-89                23.73     23.73     23.73      0.99         1.82
  C_1364-C-89                23.73     23.73     23.73      1.23         3.31
  C_1365-C-89                23.73     23.73     23.73      1.12         3.97
  C_1366-C-89                 2.42      2.42     23.73      0.01         0.01
  C_1367-C-89                 1.81      1.81      2.42      0.01         0.01
  C_1368-C-89                 1.44      1.44      1.81      0.01         0.01
  C_1369-C-89                 0.61      0.61      1.44      0.01         0.01
  C_1370-C-89                 0.50      0.50      0.61      0.01         0.01
  C_1371-C-89                 0.50      0.50      0.52      0.39         0.08
  C_1372-C-89                 0.52      0.52      0.65      0.01         0.01
  C_1373-C-89                 0.65      0.65      1.07      0.01         0.01
  C_1374-C-89                 1.07      1.07      1.58      0.01         0.01
  C_1375-C-89                 1.58      1.58      1.99      0.01         0.01
  C_1376-C-89                 1.99      1.99      2.09      0.01         0.01
  C_1377-C-89                 2.09      2.09      2.14      0.01         0.02
  C_1378-C-89                 2.14      2.14      2.17      0.81         0.87
  C_1379-C-141                2.14      2.14      2.26      0.01         0.01
  C_1380-C-141                2.12      2.12      2.14      0.01         0.14
  C_1381-C-141                2.12      2.12      2.20      0.01         0.01
  C_1382-C-141                2.14      2.14      2.20      0.01         0.01
  C_1383-C-141                2.08      2.08      2.14      0.01         0.01
  C_1384-C-141                1.99      1.99      2.08      0.01         0.01
  C_1385-C-141                1.91      1.91      1.99      0.46         0.46
  C_1386-C-141                1.71      1.71      1.91      0.01         0.01
  C_1387-C-141                0.67      0.67      1.71      0.01         0.01
  C_1388-C-141                0.01      0.01      0.67      0.01         0.01
  C_1393-C-141                0.01      0.01      0.31      0.01         0.01
  C_1394-C-141                0.31      0.31      0.33      0.01         0.01
  C_1395-C-141                0.33      0.33      0.34      0.01         0.01
  C_1396-C-141                0.34      0.34      0.58      0.01         0.01
  C_1397-C-141                0.57      0.58      0.57      0.78         0.57
  C_1398-C-141                0.57      0.57      0.57      0.56         0.55
  C_1399-C-141                0.56      0.57      0.56      0.62         0.56
  C_1400-C-141                0.01      0.01      0.56      0.86         0.01
  C_1401-C-109                0.01      0.57      0.01      0.98         0.01
  C_1402-C-109                0.57      0.78      0.57      1.19         0.57
  C_1403-C-109                0.78      0.78      0.99      1.63         0.01
  C_1404-C-109                0.99      1.09      0.99      1.24         0.99
  C_1405-C-109                1.09      1.10      1.09      1.19         1.08
  C_1406-C-109                1.04      1.04      1.10      0.01         0.02
  C_1407-C-109                0.97      0.97      1.04      0.01         0.02
  C_1408-C-109                0.97      1.00      0.97      0.76         0.61
  C_1409-C-109                0.99      0.99      1.00      0.19         0.17
  C_1410-C-109                0.99      0.99      1.19      0.01         0.01
  C_1411-C-109                1.05      1.05      1.19      0.01         0.01
  C_1412-C-109                1.05      1.06      1.05      1.16         1.03
  C_1413-C-109                1.06      1.06      1.06      0.31         0.34
  C_1414-C-109                1.05      1.06      1.10      1.18         0.01
  C_1415-C-109                1.09      1.09      1.10      0.25         0.23
  C_1416-C-109                1.07      1.07      1.09      0.01         0.02
  C_1417-C-109                1.07      1.07      1.10      0.40         0.01
  C_1418-C-109                1.10      1.10      1.13      0.98         0.01
  C_1419-C-109                0.99      0.99      1.01      0.01         0.01
  C_1420-C-109                0.93      0.93      0.99      0.01         0.01
  C_1421-C-109                0.87      0.87      0.93      0.01         0.01
  C_1422-C-109                0.01      0.01      0.87      0.01         0.01
  

  Analysis begun on:  Sat Oct 18 09:57:26 2025
  Analysis ended on:  Sat Oct 18 09:58:03 2025
  Total elapsed time: 00:00:37