
  EPA STORM WATER MANAGEMENT MODEL - VERSION 5.2 (Build 5.2.4)
  PYSWMM TOOLKIT API - VERSION v1.0 (2025-09-04)
  ------------------------------------------------------------

  Mandaue City Drainage Network Model 
  Generated from GIS data 
  2025-10-15 16:12 
  WARNING 04: minimum elevation drop used for Conduit C_182
  WARNING 04: minimum elevation drop used for Conduit C_225
  WARNING 04: minimum elevation drop used for Conduit C_231
  WARNING 04: minimum elevation drop used for Conduit C_243
  WARNING 04: minimum elevation drop used for Conduit C_244
  WARNING 04: minimum elevation drop used for Conduit C_329
  WARNING 04: minimum elevation drop used for Conduit C_332
  WARNING 04: minimum elevation drop used for Conduit C_342
  WARNING 04: minimum elevation drop used for Conduit C_378
  WARNING 04: minimum elevation drop used for Conduit C_387
  WARNING 04: minimum elevation drop used for Conduit C_395
  WARNING 04: minimum elevation drop used for Conduit C_407
  WARNING 04: minimum elevation drop used for Conduit C_430
  WARNING 04: minimum elevation drop used for Conduit C_437
  WARNING 04: minimum elevation drop used for Conduit C_442
  WARNING 04: minimum elevation drop used for Conduit C_447
  WARNING 04: minimum elevation drop used for Conduit C_462
  WARNING 04: minimum elevation drop used for Conduit C_478
  WARNING 04: minimum elevation drop used for Conduit C_479
  WARNING 04: minimum elevation drop used for Conduit C_483
  WARNING 04: minimum elevation drop used for Conduit C_492
  WARNING 04: minimum elevation drop used for Conduit C_585
  WARNING 04: minimum elevation drop used for Conduit C_587
  WARNING 04: minimum elevation drop used for Conduit C_591
  WARNING 04: minimum elevation drop used for Conduit C_597
  WARNING 04: minimum elevation drop used for Conduit C_600
  WARNING 04: minimum elevation drop used for Conduit C_603
  WARNING 04: minimum elevation drop used for Conduit C_642
  WARNING 04: minimum elevation drop used for Conduit C_649
  WARNING 04: minimum elevation drop used for Conduit C_671
  WARNING 04: minimum elevation drop used for Conduit C_677
  WARNING 04: minimum elevation drop used for Conduit C_737
  WARNING 04: minimum elevation drop used for Conduit C_752
  WARNING 04: minimum elevation drop used for Conduit C_783
  WARNING 04: minimum elevation drop used for Conduit C_786
  WARNING 04: minimum elevation drop used for Conduit C_798
  WARNING 04: minimum elevation drop used for Conduit C_857
  WARNING 04: minimum elevation drop used for Conduit C_909
  WARNING 04: minimum elevation drop used for Conduit C_921
  WARNING 04: minimum elevation drop used for Conduit C_953
  WARNING 04: minimum elevation drop used for Conduit C_964
  WARNING 04: minimum elevation drop used for Conduit C_1131
  WARNING 04: minimum elevation drop used for Conduit C_1136
  WARNING 04: minimum elevation drop used for Conduit C_1138
  WARNING 04: minimum elevation drop used for Conduit C_1140
  WARNING 04: minimum elevation drop used for Conduit C_1141
  WARNING 04: minimum elevation drop used for Conduit C_1144
  WARNING 04: minimum elevation drop used for Conduit C_1146
  WARNING 04: minimum elevation drop used for Conduit C_1147
  WARNING 04: minimum elevation drop used for Conduit C_1234
  WARNING 04: minimum elevation drop used for Conduit C_1260
  WARNING 04: minimum elevation drop used for Conduit C_1280
  WARNING 04: minimum elevation drop used for Conduit C_1347
  WARNING 04: minimum elevation drop used for Conduit C_1348
  WARNING 04: minimum elevation drop used for Conduit C_1351
  WARNING 04: minimum elevation drop used for Conduit C_1356
  WARNING 04: minimum elevation drop used for Conduit C_1364
  WARNING 04: minimum elevation drop used for Conduit C_1365
  WARNING 02: maximum depth increased for Node I-30
  WARNING 02: maximum depth increased for Node I-37
  WARNING 02: maximum depth increased for Node I-75
  WARNING 02: maximum depth increased for Node I-82
  
  ****************
  Analysis Options
  ****************
  Flow Units ............... CMS
  Process Models:
    Rainfall/Runoff ........ YES
    RDII ................... NO
    Snowmelt ............... NO
    Groundwater ............ NO
    Flow Routing ........... YES
    Ponding Allowed ........ YES
    Water Quality .......... NO
  Infiltration Method ...... HORTON
  Flow Routing Method ...... DYNWAVE
  Surcharge Method ......... EXTRAN
  Starting Date ............ 01/01/2024 00:00:00
  Ending Date .............. 01/01/2024 01:00:00
  Antecedent Dry Days ...... 0.0
  Report Time Step ......... 00:01:00
  Wet Time Step ............ 00:05:00
  Dry Time Step ............ 01:00:00
  Routing Time Step ........ 5.00 sec
  Variable Time Step ....... YES
  Maximum Trials ........... 8
  Number of Threads ........ 1
  Head Tolerance ........... 0.001500 m
  
  
  **************************        Volume         Depth
  Runoff Quantity Continuity     hectare-m            mm
  **************************     ---------       -------
  Total Precipitation ......        81.101       105.002
  Evaporation Loss .........         0.000         0.000
  Infiltration Loss ........        16.167        20.932
  Surface Runoff ...........        36.930        47.814
  Final Storage ............        29.640        38.375
  Continuity Error (%) .....        -2.017
  
  
  **************************        Volume        Volume
  Flow Routing Continuity        hectare-m      10^6 ltr
  **************************     ---------     ---------
  Dry Weather Inflow .......         0.000         0.000
  Wet Weather Inflow .......        35.409       354.098
  Groundwater Inflow .......         0.000         0.000
  RDII Inflow ..............         0.000         0.000
  External Inflow ..........         0.000         0.000
  External Outflow .........        15.035       150.354
  Flooding Loss ............        16.577       165.773
  Evaporation Loss .........         0.000         0.000
  Exfiltration Loss ........         0.000         0.000
  Initial Stored Volume ....         0.000         0.000
  Final Stored Volume ......         3.427        34.275
  Continuity Error (%) .....         1.044
  
  
  *************************
  Highest Continuity Errors
  *************************
  Node I-11 (35.80%)
  Node I-30 (32.74%)
  Node I-114 (30.96%)
  Node I-1 (18.12%)
  Node ISD-351 (16.80%)
  
  
  ***************************
  Time-Step Critical Elements
  ***************************
  Link C_1318 (37.16%)
  Link C_1335 (5.55%)
  Link C_569 (4.39%)
  Link C_953 (3.92%)
  Link C_198 (2.63%)
  
  
  ********************************
  Highest Flow Instability Indexes
  ********************************
  Link C_633 (131)
  Link C_631 (131)
  Link C_691 (128)
  Link C_611 (127)
  Link C_610 (127)
  
  
  *********************************
  Most Frequent Nonconverging Nodes
  *********************************
  Node O-0 (92.11%)
  Node O-1 (92.11%)
  Node O-2 (92.11%)
  Node O-3 (92.11%)
  Node O-4 (92.11%)
  
  
  *************************
  Routing Time Step Summary
  *************************
  Minimum Time Step           :     0.21 sec
  Average Time Step           :     0.68 sec
  Maximum Time Step           :     5.00 sec
  % of Time in Steady State   :     0.00
  Average Iterations per Step :     7.62
  % of Steps Not Converging   :    92.11
  Time Step Frequencies       :
      5.000 -  3.155 sec      :     2.58 %
      3.155 -  1.991 sec      :     0.57 %
      1.991 -  1.256 sec      :     1.76 %
      1.256 -  0.792 sec      :     4.75 %
      0.792 -  0.500 sec      :    90.34 %
  
  
  ***************************
  Subcatchment Runoff Summary
  ***************************
  
  ------------------------------------------------------------------------------------------------------------------------------
                            Total      Total      Total      Total     Imperv       Perv      Total       Total     Peak  Runoff
                           Precip      Runon       Evap      Infil     Runoff     Runoff     Runoff      Runoff   Runoff   Coeff
  Subcatchment                 mm         mm         mm         mm         mm         mm         mm    10^6 ltr      CMS
  ------------------------------------------------------------------------------------------------------------------------------
  SC_I-0                   105.00       0.00       0.00      33.59       0.00      20.30      20.30        0.59     0.37   0.193
  SC_I-1                   105.00       0.00       0.00      33.59       0.00      15.69      15.69        0.67     0.43   0.149
  SC_I-2                   105.00       0.00       0.00      13.86      40.61      13.58      54.19        1.60     0.79   0.516
  SC_I-3                   105.00       0.00       0.00      33.59       0.00      12.99      12.99        0.43     0.28   0.124
  SC_I-4                   105.00       0.00       0.00      12.28      46.81      14.81      61.62        1.39     0.69   0.587
  SC_I-5                   105.00       0.00       0.00      21.83      31.12       7.14      38.25        3.78     1.89   0.364
  SC_I-6                   105.00       0.00       0.00      21.90      31.85       8.55      40.40        2.54     1.25   0.385
  SC_I-7                   105.00       0.00       0.00      21.83      33.74      13.20      46.94        0.94     0.45   0.447
  SC_I-8                   105.00       0.00       0.00      21.83      35.40      24.57      59.96        0.36     0.18   0.571
  SC_I-9                   105.00       0.00       0.00      21.83      32.15       8.80      40.94        2.18     1.07   0.390
  SC_I-10                  105.00       0.00       0.00      33.59       0.00      14.64      14.64        0.49     0.31   0.139
  SC_I-11                  105.00       0.00       0.00      33.59       0.00      11.25      11.25        0.68     0.45   0.107
  SC_I-12                  105.00       0.00       0.00      33.59       0.00      13.62      13.62        0.74     0.48   0.130
  SC_I-13                  105.00       0.00       0.00      21.83      31.41       7.55      38.96        2.96     1.47   0.371
  SC_I-14                  105.00       0.00       0.00      21.83      31.39       7.53      38.92        2.71     1.35   0.371
  SC_I-15                  105.00       0.00       0.00      21.83      31.69       8.00      39.69        2.52     1.25   0.378
  SC_I-16                  105.00       0.00       0.00      21.83      35.26      23.08      58.35        0.18     0.09   0.556
  SC_I-17                  105.00       0.00       0.00      33.59       0.00      16.28      16.28        0.20     0.13   0.155
  SC_I-20                  105.00       0.00       0.00      21.83      33.44      12.13      45.57        1.37     0.66   0.434
  SC_I-21                  105.00       0.00       0.00      33.59       0.00       9.35       9.35        0.56     0.37   0.089
  SC_I-22                  105.00       0.00       0.00      33.59       0.00      10.18      10.18        0.48     0.32   0.097
  SC_I-23                  105.00       0.00       0.00      21.83      32.64       9.86      42.50        1.84     0.90   0.405
  SC_I-24                  105.00       0.00       0.00      21.83      34.03      14.47      48.50        0.84     0.40   0.462
  SC_I-26                  105.00       0.00       0.00      21.83      32.44       9.40      41.84        2.54     1.25   0.398
  SC_I-27                  105.00       0.00       0.00      12.28      45.18      12.01      57.20        1.36     0.68   0.545
  SC_I-28                  105.00       0.00       0.00      21.83      35.08      21.33      56.41        0.19     0.09   0.537
  SC_I-29                  105.00       0.00       0.00      12.31      46.37      14.11      60.48        1.61     0.80   0.576
  SC_I-30                  105.00       0.00       0.00      12.28      47.85      17.22      65.07        0.68     0.34   0.620
  SC_I-31                  105.00       0.00       0.00      12.28      47.99      17.61      65.60        0.73     0.36   0.625
  SC_I-32                  105.00       0.00       0.00      12.28      50.42      27.05      77.46        0.13     0.07   0.738
  SC_I-33                  105.00       0.00       0.00      12.28      45.86      13.05      58.91        1.82     0.91   0.561
  SC_I-34                  105.00       0.00       0.00      25.93      22.13      10.66      32.79        2.67     1.25   0.312
  SC_I-35                  105.00       0.00       0.00      21.83      33.10      11.05      44.15        1.17     0.57   0.421
  SC_I-36                  105.00       0.00       0.00      13.56      40.73      11.80      52.53        3.51     1.75   0.500
  SC_I-37                  105.00       0.00       0.00      12.28      48.11      17.94      66.05        0.77     0.38   0.629
  SC_I-38                  105.00       0.00       0.00      21.83      32.84      10.36      43.20        1.91     0.93   0.411
  SC_I-39                  105.00       0.00       0.00      21.83      34.17      15.16      49.33        0.69     0.33   0.470
  SC_I-40                  105.00       0.00       0.00      12.41      44.22      11.26      55.48        2.20     1.10   0.528
  SC_I-41                  105.00       0.00       0.00      12.28      44.79      11.47      56.27        2.36     1.19   0.536
  SC_I-42                  105.00       0.00       0.00      12.28      48.82      20.15      68.98        0.42     0.21   0.657
  SC_I-43                  105.00       0.00       0.00      12.28      45.12      11.92      57.04        1.93     0.97   0.543
  SC_I-44                  105.00       0.00       0.00      21.83      33.42      12.04      45.45        1.45     0.70   0.433
  SC_I-45                  105.00       0.00       0.00      21.83      33.20      11.36      44.56        0.84     0.41   0.424
  SC_I-46                  105.00       0.00       0.00      12.28      51.00      30.42      81.41        0.10     0.06   0.775
  SC_I-47                  105.00       0.00       0.00      12.28      45.42      12.35      57.77        2.06     1.03   0.550
  SC_I-48                  105.00       0.00       0.00      12.28      49.13      21.26      70.38        0.54     0.27   0.670
  SC_I-49                  105.00       0.00       0.00      12.28      44.70      11.35      56.05        2.76     1.39   0.534
  SC_I-50                  105.00       0.00       0.00      21.83      31.22       7.28      38.49        2.82     1.41   0.367
  SC_I-51                  105.00       0.00       0.00      12.28      48.87      20.32      69.18        0.33     0.17   0.659
  SC_I-52                  105.00       0.00       0.00      12.28      44.70      11.35      56.05        2.18     1.10   0.534
  SC_I-53                  105.00       0.00       0.00      12.28      47.55      16.47      64.02        0.77     0.38   0.610
  SC_I-54                  105.00       0.00       0.00      21.83      31.28       7.37      38.65        3.69     1.84   0.368
  SC_I-55                  105.00       0.00       0.00      12.28      47.22      15.69      62.91        1.04     0.51   0.599
  SC_I-56                  105.00       0.00       0.00      12.16      45.23      11.51      56.74        2.01     1.01   0.540
  SC_I-57                  105.00       0.00       0.00      12.28      45.44      12.39      57.82        1.95     0.97   0.551
  SC_I-58                  105.00       0.00       0.00      12.38      46.23      14.36      60.58        1.32     0.66   0.577
  SC_I-59                  105.00       0.00       0.00      12.28      46.83      14.86      61.69        1.07     0.53   0.588
  SC_I-60                  105.00       0.00       0.00      28.92      13.89      11.65      25.54        0.75     0.34   0.243
  SC_I-61                  105.00       0.00       0.00      33.59       0.00      13.44      13.44        0.49     0.32   0.128
  SC_I-63                  105.00       0.00       0.00      12.28      46.15      13.55      59.70        1.50     0.75   0.569
  SC_I-64                  105.00       0.00       0.00      12.28      47.75      16.98      64.73        0.69     0.34   0.617
  SC_I-65                  105.00       0.00       0.00      33.59       0.00      12.32      12.32        0.39     0.26   0.117
  SC_I-66                  105.00       0.00       0.00      21.83      35.37      24.21      59.58        0.25     0.12   0.567
  SC_I-67                  105.00       0.00       0.00      12.28      45.89      13.11      59.00        1.62     0.81   0.562
  SC_I-68                  105.00       0.00       0.00      12.28      48.57      19.32      67.89        0.48     0.24   0.647
  SC_I-69                  105.00       0.00       0.00      10.56      49.32      10.26      59.58        2.47     1.26   0.567
  SC_I-71                  105.00       0.00       0.00      33.59       0.00      16.27      16.27        0.41     0.26   0.155
  SC_I-72                  105.00       0.00       0.00      12.28      46.93      15.06      62.00        0.80     0.40   0.590
  SC_I-73                  105.00       0.00       0.00      12.28      48.15      18.04      66.19        0.63     0.31   0.630
  SC_I-74                  105.00       0.00       0.00      12.28      47.44      16.20      63.64        0.73     0.36   0.606
  SC_I-75                  105.00       0.00       0.00       9.83      51.40      10.00      61.40        2.63     1.35   0.585
  SC_I-76                  105.00       0.00       0.00      12.38      47.00      16.03      63.03        0.65     0.32   0.600
  SC_I-77                  105.00       0.00       0.00      12.28      46.75      14.68      61.42        1.23     0.61   0.585
  SC_I-78                  105.00       0.00       0.00      33.59       0.00      11.57      11.57        0.25     0.16   0.110
  SC_I-79                  105.00       0.00       0.00      21.83      32.99      10.73      43.72        1.19     0.58   0.416
  SC_I-80                  105.00       0.00       0.00      21.83      34.41      16.45      50.86        0.56     0.27   0.484
  SC_I-81                  105.00       0.00       0.00      33.59       0.00      12.20      12.20        1.04     0.68   0.116
  SC_I-82                  105.00       0.00       0.00      11.55      45.10       9.29      54.39        3.09     1.57   0.518
  SC_I-83                  105.00       0.00       0.00      33.59       0.00      10.15      10.15        1.03     0.68   0.097
  SC_I-84                  105.00       0.00       0.00      21.83      33.42      12.03      45.45        0.69     0.33   0.433
  SC_I-85                  105.00       0.00       0.00      33.59       0.00      10.86      10.86        0.33     0.21   0.103
  SC_I-86                  105.00       0.00       0.00      21.83      32.77      10.17      42.94        1.01     0.49   0.409
  SC_I-87                  105.00       0.00       0.00      21.83      33.71      13.09      46.80        1.30     0.63   0.446
  SC_I-88                  105.00       0.00       0.00      21.83      31.81       8.20      40.01        2.25     1.11   0.381
  SC_I-89                  105.00       0.00       0.00      21.83      34.66      18.02      52.68        0.24     0.12   0.502
  SC_I-90                  105.00       0.00       0.00      21.83      32.92      10.56      43.48        1.20     0.59   0.414
  SC_I-91                  105.00       0.00       0.00      21.83      32.01       8.54      40.55        1.79     0.89   0.386
  SC_I-92                  105.00       0.00       0.00      21.83      31.72       8.04      39.77        2.45     1.22   0.379
  SC_I-93                  105.00       0.00       0.00      21.83      31.41       7.55      38.96        2.45     1.22   0.371
  SC_I-94                  105.00       0.00       0.00      21.83      32.30       9.10      41.40        1.67     0.82   0.394
  SC_I-95                  105.00       0.00       0.00      21.83      32.84      10.35      43.19        1.19     0.58   0.411
  SC_I-96                  105.00       0.00       0.00      21.83      31.37       7.50      38.87        2.94     1.46   0.370
  SC_I-97                  105.00       0.00       0.00      21.83      31.89       8.33      40.21        2.07     1.03   0.383
  SC_I-98                  105.00       0.00       0.00      32.45       3.54      26.27      29.81        0.09     0.05   0.284
  SC_I-99                  105.00       0.00       0.00      21.83      31.94       8.42      40.36        2.09     1.03   0.384
  SC_I-100                 105.00       0.00       0.00      20.66      38.63      22.11      60.74        0.58     0.28   0.578
  SC_I-101                 105.00       0.00       0.00      21.83      32.69       9.97      42.66        1.28     0.63   0.406
  SC_I-102                 105.00       0.00       0.00      22.27      30.98       8.62      39.60        2.65     1.30   0.377
  SC_I-103                 105.00       0.00       0.00      26.17      21.86      13.63      35.49        1.72     0.80   0.338
  SC_I-104                 105.00       0.00       0.00      21.83      33.51      12.36      45.87        0.93     0.45   0.437
  SC_I-105                 105.00       0.00       0.00      21.83      34.97      20.36      55.34        0.20     0.10   0.527
  SC_I-106                 105.00       0.00       0.00      21.83      33.12      11.12      44.24        2.12     1.03   0.421
  SC_I-107                 105.00       0.00       0.00      33.59       0.00       9.27       9.27        0.37     0.25   0.088
  SC_I-108                 105.00       0.00       0.00      21.83      34.36      16.15      50.51        0.77     0.37   0.481
  SC_I-109                 105.00       0.00       0.00      33.59       0.00      21.80      21.80        0.33     0.20   0.208
  SC_I-110                 105.00       0.00       0.00      21.83      31.42       7.57      39.00        2.66     1.32   0.371
  SC_I-111                 105.00       0.00       0.00      21.83      35.47      25.37      60.84        0.15     0.07   0.579
  SC_I-112                 105.00       0.00       0.00      21.83      35.07      21.24      56.31        0.42     0.20   0.536
  SC_I-113                 105.00       0.00       0.00      21.83      35.12      21.71      56.83        0.39     0.19   0.541
  SC_I-114                 105.00       0.00       0.00      33.59       0.00       9.14       9.14        0.47     0.31   0.087
  SC_I-115                 105.00       0.00       0.00      21.83      33.94      14.07      48.02        0.70     0.33   0.457
  SC_I-117                 105.00       0.00       0.00      11.87      48.93      16.01      64.94        1.64     0.81   0.618
  SC_I-118                 105.00       0.00       0.00      12.28      48.47      19.02      67.49        0.52     0.26   0.643
  SC_I-119                 105.00       0.00       0.00      21.83      32.94      10.61      43.56        2.83     1.38   0.415
  SC_I-120                 105.00       0.00       0.00      12.28      48.35      18.65      67.01        0.58     0.29   0.638
  SC_I-121                 105.00       0.00       0.00       9.88      60.19      23.81      84.00        0.08     0.04   0.800
  SC_I-122                 105.00       0.00       0.00      21.83      32.68       9.94      42.62        0.55     0.27   0.406
  SC_I-123                 105.00       0.00       0.00      33.59       0.00      26.47      26.47        0.21     0.13   0.252
  SC_I-124                 105.00       0.00       0.00      12.28      46.64      14.46      61.09        0.97     0.48   0.582
  SC_I-125                 105.00       0.00       0.00      12.28      46.57      14.33      60.90        1.19     0.59   0.580
  SC_I-126                 105.00       0.00       0.00      29.96      10.94      13.57      24.51        0.49     0.23   0.233
  SC_I-127                 105.00       0.00       0.00      21.83      32.39       9.30      41.70        2.02     0.99   0.397
  SC_I-128                 105.00       0.00       0.00      30.06      10.69      15.58      26.27        0.41     0.20   0.250
  SC_I-129                 105.00       0.00       0.00      33.59       0.00      29.54      29.54        0.17     0.10   0.281
  SC_I-130                 105.00       0.00       0.00       0.00      85.09       0.00      85.09        3.11     1.62   0.810
  SC_I-131                 105.00       0.00       0.00      14.64      37.41      12.53      49.94        1.46     0.72   0.476
  SC_I-132                 105.00       0.00       0.00      13.02      41.95      10.91      52.86        3.19     1.60   0.503
  SC_I-133                 105.00       0.00       0.00      21.83      34.65      17.94      52.59        0.45     0.21   0.501
  SC_I-134                 105.00       0.00       0.00      33.59       0.00      23.98      23.98        0.17     0.10   0.228
  SC_I-135                 105.00       0.00       0.00      21.83      35.64      27.69      63.33        0.08     0.04   0.603
  SC_I-136                 105.00       0.00       0.00      21.83      31.41       7.56      38.97        2.22     1.10   0.371
  SC_I-137                 105.00       0.00       0.00      33.59       0.00       9.95       9.95        0.38     0.25   0.095
  SC_I-138                 105.00       0.00       0.00      21.83      34.48      16.83      51.31        0.49     0.23   0.489
  SC_I-139                 105.00       0.00       0.00      21.83      34.05      14.54      48.59        0.56     0.27   0.463
  SC_I-140                 105.00       0.00       0.00      12.16      46.40      13.24      59.65        2.11     1.05   0.568
  SC_I-141                 105.00       0.00       0.00      33.59       0.00       8.44       8.44        0.46     0.31   0.080
  SC_I-142                 105.00       0.00       0.00      12.28      46.79      14.76      61.55        0.57     0.28   0.586
  SC_I-143                 105.00       0.00       0.00      12.28      49.11      21.18      70.29        0.45     0.22   0.669
  SC_ISD-1                 105.00       0.00       0.00      12.28      50.34      26.64      76.98        0.14     0.07   0.733
  SC_ISD-2                 105.00       0.00       0.00      12.28      50.12      25.51      75.62        0.16     0.08   0.720
  SC_ISD-3                 105.00       0.00       0.00      12.28      50.02      25.03      75.05        0.16     0.08   0.715
  SC_ISD-4                 105.00       0.00       0.00      12.28      50.15      25.65      75.80        0.13     0.07   0.722
  SC_ISD-5                 105.00       0.00       0.00      12.28      49.86      24.27      74.13        0.16     0.08   0.706
  SC_ISD-6                 105.00       0.00       0.00      12.28      49.85      24.24      74.09        0.16     0.08   0.706
  SC_ISD-7                 105.00       0.00       0.00      12.28      50.08      25.30      75.38        0.12     0.06   0.718
  SC_ISD-8                 105.00       0.00       0.00      12.28      49.70      23.54      73.24        0.16     0.08   0.697
  SC_ISD-9                 105.00       0.00       0.00      12.28      49.65      23.35      73.00        0.16     0.08   0.695
  SC_ISD-10                105.00       0.00       0.00      12.28      49.95      24.69      74.64        0.12     0.06   0.711
  SC_ISD-11                105.00       0.00       0.00      12.28      49.87      24.34      74.21        0.13     0.07   0.707
  SC_ISD-12                105.00       0.00       0.00      12.28      50.13      25.58      75.72        0.10     0.05   0.721
  SC_ISD-13                105.00       0.00       0.00      12.28      50.14      25.64      75.78        0.10     0.05   0.722
  SC_ISD-14                105.00       0.00       0.00      12.28      49.94      24.67      74.62        0.12     0.06   0.711
  SC_ISD-15                105.00       0.00       0.00      12.28      49.73      23.68      73.40        0.16     0.08   0.699
  SC_ISD-16                105.00       0.00       0.00      12.28      49.71      23.60      73.31        0.15     0.08   0.698
  SC_ISD-17                105.00       0.00       0.00      12.28      49.97      24.78      74.75        0.12     0.06   0.712
  SC_ISD-18                105.00       0.00       0.00      12.28      50.10      25.44      75.54        0.11     0.05   0.719
  SC_ISD-19                105.00       0.00       0.00      12.28      50.16      25.72      75.88        0.10     0.05   0.723
  SC_ISD-20                105.00       0.00       0.00      12.28      49.86      24.29      74.15        0.10     0.05   0.706
  SC_ISD-21                105.00       0.00       0.00      12.28      50.06      25.23      75.30        0.11     0.05   0.717
  SC_ISD-22                105.00       0.00       0.00      12.28      49.61      23.16      72.77        0.16     0.08   0.693
  SC_ISD-23                105.00       0.00       0.00      12.28      49.79      23.99      73.78        0.13     0.07   0.703
  SC_ISD-24                105.00       0.00       0.00      12.28      50.12      25.51      75.63        0.10     0.05   0.720
  SC_ISD-25                105.00       0.00       0.00      12.28      50.10      25.44      75.55        0.10     0.05   0.719
  SC_ISD-26                105.00       0.00       0.00      12.28      50.11      25.48      75.59        0.10     0.05   0.720
  SC_ISD-27                105.00       0.00       0.00      12.28      49.68      23.46      73.13        0.16     0.08   0.696
  SC_ISD-28                105.00       0.00       0.00      12.28      49.88      24.38      74.26        0.14     0.07   0.707
  SC_ISD-29                105.00       0.00       0.00      12.28      50.46      27.29      77.76        0.07     0.04   0.741
  SC_ISD-30                105.00       0.00       0.00      12.28      50.32      26.54      76.86        0.07     0.04   0.732
  SC_ISD-31                105.00       0.00       0.00      12.28      50.32      26.51      76.83        0.08     0.04   0.732
  SC_ISD-32                105.00       0.00       0.00      12.28      50.21      25.96      76.17        0.10     0.05   0.725
  SC_ISD-33                105.00       0.00       0.00      12.28      50.19      25.89      76.09        0.10     0.05   0.725
  SC_ISD-34                105.00       0.00       0.00      12.28      50.34      26.63      76.97        0.08     0.04   0.733
  SC_ISD-35                105.00       0.00       0.00      12.28      50.10      25.40      75.50        0.10     0.05   0.719
  SC_ISD-36                105.00       0.00       0.00      12.28      49.93      24.61      74.54        0.11     0.05   0.710
  SC_ISD-37                105.00       0.00       0.00      12.28      50.19      25.88      76.08        0.09     0.04   0.725
  SC_ISD-38                105.00       0.00       0.00      12.28      49.95      24.69      74.64        0.10     0.05   0.711
  SC_ISD-39                105.00       0.00       0.00      12.28      50.26      26.22      76.47        0.08     0.04   0.728
  SC_ISD-40                105.00       0.00       0.00      12.28      49.97      24.80      74.77        0.10     0.05   0.712
  SC_ISD-41                105.00       0.00       0.00      12.28      50.26      26.23      76.49        0.09     0.05   0.729
  SC_ISD-42                105.00       0.00       0.00      12.28      50.25      26.18      76.43        0.10     0.05   0.728
  SC_ISD-43                105.00       0.00       0.00      12.28      50.35      26.70      77.05        0.10     0.05   0.734
  SC_ISD-44                105.00       0.00       0.00      12.28      50.53      27.67      78.21        0.08     0.04   0.745
  SC_ISD-45                105.00       0.00       0.00      12.28      50.31      26.48      76.78        0.11     0.06   0.731
  SC_ISD-46                105.00       0.00       0.00      12.28      50.43      27.11      77.54        0.10     0.05   0.738
  SC_ISD-47                105.00       0.00       0.00      12.28      50.52      27.59      78.11        0.09     0.05   0.744
  SC_ISD-48                105.00       0.00       0.00      12.28      49.84      24.18      74.02        0.18     0.09   0.705
  SC_ISD-49                105.00       0.00       0.00      12.28      49.84      24.19      74.03        0.18     0.09   0.705
  SC_ISD-50                105.00       0.00       0.00      12.28      50.13      25.59      75.72        0.11     0.06   0.721
  SC_ISD-51                105.00       0.00       0.00      12.28      50.05      25.20      75.25        0.14     0.07   0.717
  SC_ISD-52                105.00       0.00       0.00      12.28      50.08      25.32      75.40        0.13     0.07   0.718
  SC_ISD-53                105.00       0.00       0.00      12.28      50.27      26.26      76.53        0.10     0.05   0.729
  SC_ISD-54                105.00       0.00       0.00      12.28      50.29      26.37      76.66        0.09     0.05   0.730
  SC_ISD-55                105.00       0.00       0.00      12.28      50.17      25.75      75.92        0.09     0.05   0.723
  SC_ISD-56                105.00       0.00       0.00      12.28      50.06      25.21      75.27        0.09     0.05   0.717
  SC_ISD-57                105.00       0.00       0.00      12.28      50.32      26.54      76.86        0.10     0.05   0.732
  SC_ISD-58                105.00       0.00       0.00      12.28      50.08      25.30      75.38        0.13     0.07   0.718
  SC_ISD-59                105.00       0.00       0.00      12.28      50.14      25.60      75.74        0.14     0.07   0.721
  SC_ISD-60                105.00       0.00       0.00      12.28      50.60      28.06      78.66        0.10     0.05   0.749
  SC_ISD-61                105.00       0.00       0.00      12.28      50.64      28.29      78.93        0.10     0.05   0.752
  SC_ISD-62                105.00       0.00       0.00      12.31      50.60      28.66      79.26        0.10     0.05   0.755
  SC_ISD-63                105.00       0.00       0.00      12.28      50.79      29.13      79.92        0.10     0.05   0.761
  SC_ISD-64                105.00       0.00       0.00      12.28      50.75      28.89      79.63        0.10     0.05   0.758
  SC_ISD-65                105.00       0.00       0.00      12.46      48.07      19.93      68.00        0.47     0.24   0.648
  SC_ISD-66                105.00       0.00       0.00      33.59       0.00      19.44      19.44        0.23     0.14   0.185
  SC_ISD-67                105.00       0.00       0.00      21.83      35.12      21.71      56.83        0.44     0.21   0.541
  SC_ISD-68                105.00       0.00       0.00      21.83      35.66      27.86      63.52        0.24     0.12   0.605
  SC_ISD-69                105.00       0.00       0.00      21.83      34.58      17.48      52.06        0.34     0.16   0.496
  SC_ISD-70                105.00       0.00       0.00      21.83      35.74      29.13      64.87        0.21     0.10   0.618
  SC_ISD-71                105.00       0.00       0.00      21.83      35.58      26.76      62.34        0.23     0.12   0.594
  SC_ISD-72                105.00       0.00       0.00      21.83      35.63      27.48      63.11        0.19     0.09   0.601
  SC_ISD-73                105.00       0.00       0.00      21.83      35.57      26.64      62.21        0.17     0.08   0.592
  SC_ISD-74                105.00       0.00       0.00      21.83      35.58      26.80      62.38        0.13     0.07   0.594
  SC_ISD-75                105.00       0.00       0.00      21.83      35.55      26.45      62.00        0.12     0.06   0.590
  SC_ISD-76                105.00       0.00       0.00      21.83      35.55      26.45      62.00        0.11     0.05   0.590
  SC_ISD-77                105.00       0.00       0.00      21.83      35.41      24.76      60.18        0.13     0.06   0.573
  SC_ISD-78                105.00       0.00       0.00      21.83      35.37      24.23      59.60        0.13     0.06   0.568
  SC_ISD-79                105.00       0.00       0.00      21.83      35.54      26.24      61.77        0.09     0.04   0.588
  SC_ISD-80                105.00       0.00       0.00      21.83      35.49      25.70      61.19        0.09     0.05   0.583
  SC_ISD-81                105.00       0.00       0.00      21.83      35.50      25.77      61.27        0.10     0.05   0.584
  SC_ISD-82                105.00       0.00       0.00      21.83      35.59      26.93      62.52        0.08     0.04   0.595
  SC_ISD-83                105.00       0.00       0.00      21.83      35.68      28.16      63.84        0.07     0.04   0.608
  SC_ISD-84                105.00       0.00       0.00      21.83      35.66      27.92      63.58        0.08     0.04   0.606
  SC_ISD-85                105.00       0.00       0.00      21.83      35.62      27.32      62.94        0.09     0.04   0.599
  SC_ISD-86                105.00       0.00       0.00      21.83      35.52      26.07      61.59        0.09     0.04   0.587
  SC_ISD-87                105.00       0.00       0.00      21.83      35.29      23.40      58.69        0.08     0.04   0.559
  SC_ISD-88                105.00       0.00       0.00      21.83      35.59      26.92      62.50        0.09     0.04   0.595
  SC_ISD-89                105.00       0.00       0.00      21.83      35.49      25.62      61.11        0.08     0.04   0.582
  SC_ISD-90                105.00       0.00       0.00      21.83      35.61      27.26      62.87        0.12     0.06   0.599
  SC_ISD-91                105.00       0.00       0.00      21.83      35.63      27.54      63.18        0.12     0.06   0.602
  SC_ISD-92                105.00       0.00       0.00      21.83      35.77      29.49      65.26        0.09     0.05   0.621
  SC_ISD-93                105.00       0.00       0.00      21.83      35.81      30.19      66.00        0.08     0.04   0.629
  SC_ISD-94                105.00       0.00       0.00      21.83      35.82      30.37      66.19        0.08     0.04   0.630
  SC_ISD-95                105.00       0.00       0.00      21.83      35.80      30.09      65.89        0.09     0.05   0.628
  SC_ISD-96                105.00       0.00       0.00      21.83      35.83      30.42      66.25        0.09     0.04   0.631
  SC_ISD-97                105.00       0.00       0.00      21.83      35.83      30.44      66.27        0.09     0.04   0.631
  SC_ISD-98                105.00       0.00       0.00      21.83      35.83      30.46      66.29        0.09     0.04   0.631
  SC_ISD-99                105.00       0.00       0.00      21.83      35.80      30.03      65.83        0.09     0.05   0.627
  SC_ISD-100               105.00       0.00       0.00      21.83      35.80      29.94      65.74        0.09     0.05   0.626
  SC_ISD-101               105.00       0.00       0.00      21.83      35.66      27.97      63.63        0.13     0.06   0.606
  SC_ISD-102               105.00       0.00       0.00      21.83      35.67      28.05      63.72        0.12     0.06   0.607
  SC_ISD-103               105.00       0.00       0.00      21.83      35.80      29.99      65.79        0.09     0.04   0.627
  SC_ISD-104               105.00       0.00       0.00      21.83      35.78      29.70      65.48        0.09     0.04   0.624
  SC_ISD-105               105.00       0.00       0.00      21.83      35.76      29.37      65.13        0.09     0.05   0.620
  SC_ISD-106               105.00       0.00       0.00      21.83      35.59      26.89      62.48        0.13     0.07   0.595
  SC_ISD-107               105.00       0.00       0.00      21.83      35.55      26.41      61.96        0.13     0.06   0.590
  SC_ISD-108               105.00       0.00       0.00      33.59       0.00      35.68      35.68        0.05     0.03   0.340
  SC_ISD-109               105.00       0.00       0.00      33.59       0.00      10.08      10.08        0.54     0.36   0.096
  SC_ISD-110               105.00       0.00       0.00      25.09      25.86      28.24      54.10        0.09     0.05   0.515
  SC_ISD-111               105.00       0.00       0.00      28.38      16.01      31.67      47.68        0.08     0.04   0.454
  SC_ISD-112               105.00       0.00       0.00      21.46      36.56      25.23      61.79        0.11     0.05   0.588
  SC_ISD-113               105.00       0.00       0.00      14.10      43.09      29.14      72.23        0.09     0.05   0.688
  SC_ISD-114               105.00       0.00       0.00      13.17      46.70      27.12      73.82        0.11     0.05   0.703
  SC_ISD-115               105.00       0.00       0.00      12.55      48.91      25.15      74.06        0.13     0.06   0.705
  SC_ISD-116               105.00       0.00       0.00      12.33      49.78      24.88      74.66        0.12     0.06   0.711
  SC_ISD-117               105.00       0.00       0.00      12.26      49.73      23.27      73.00        0.15     0.08   0.695
  SC_ISD-118               105.00       0.00       0.00      12.24      49.81      23.16      72.96        0.15     0.08   0.695
  SC_ISD-119               105.00       0.00       0.00      12.26      49.88      23.89      73.77        0.13     0.07   0.703
  SC_ISD-120               105.00       0.00       0.00      12.28      49.82      24.08      73.89        0.12     0.06   0.704
  SC_ISD-121               105.00       0.00       0.00      12.28      49.53      22.82      72.35        0.15     0.08   0.689
  SC_ISD-122               105.00       0.00       0.00      12.28      49.52      22.80      72.32        0.15     0.08   0.689
  SC_ISD-123               105.00       0.00       0.00      12.28      49.85      24.24      74.09        0.12     0.06   0.706
  SC_ISD-124               105.00       0.00       0.00      12.28      49.80      24.02      73.82        0.12     0.06   0.703
  SC_ISD-125               105.00       0.00       0.00      12.28      49.99      24.91      74.91        0.10     0.05   0.713
  SC_ISD-126               105.00       0.00       0.00      12.28      50.05      25.17      75.22        0.10     0.05   0.716
  SC_ISD-127               105.00       0.00       0.00      12.28      49.84      24.21      74.06        0.12     0.06   0.705
  SC_ISD-128               105.00       0.00       0.00      12.28      49.37      22.17      71.53        0.18     0.09   0.681
  SC_ISD-129               105.00       0.00       0.00      12.28      49.54      22.87      72.41        0.16     0.08   0.690
  SC_ISD-130               105.00       0.00       0.00      12.28      50.02      25.02      75.04        0.10     0.05   0.715
  SC_ISD-131               105.00       0.00       0.00      12.28      49.83      24.13      73.96        0.12     0.06   0.704
  SC_ISD-132               105.00       0.00       0.00      12.28      49.84      24.18      74.02        0.12     0.06   0.705
  SC_ISD-133               105.00       0.00       0.00      12.28      49.76      23.84      73.61        0.12     0.06   0.701
  SC_ISD-134               105.00       0.00       0.00      12.28      49.89      24.41      74.30        0.11     0.05   0.708
  SC_ISD-135               105.00       0.00       0.00      12.28      49.92      24.55      74.46        0.10     0.05   0.709
  SC_ISD-136               105.00       0.00       0.00      12.28      49.78      23.93      73.72        0.12     0.06   0.702
  SC_ISD-137               105.00       0.00       0.00      12.28      49.74      23.75      73.49        0.12     0.06   0.700
  SC_ISD-138               105.00       0.00       0.00      12.28      49.73      23.69      73.42        0.13     0.06   0.699
  SC_ISD-139               105.00       0.00       0.00      12.28      50.04      25.12      75.16        0.10     0.05   0.716
  SC_ISD-140               105.00       0.00       0.00      12.28      50.11      25.49      75.61        0.09     0.05   0.720
  SC_ISD-141               105.00       0.00       0.00      12.28      49.85      24.22      74.07        0.13     0.06   0.705
  SC_ISD-142               105.00       0.00       0.00      12.28      49.61      23.17      72.78        0.16     0.08   0.693
  SC_ISD-143               105.00       0.00       0.00      12.28      49.66      23.38      73.04        0.16     0.08   0.696
  SC_ISD-144               105.00       0.00       0.00      12.28      49.90      24.47      74.37        0.13     0.07   0.708
  SC_ISD-145               105.00       0.00       0.00      12.28      49.94      24.65      74.58        0.13     0.07   0.710
  SC_ISD-146               105.00       0.00       0.00      12.28      49.98      24.83      74.81        0.12     0.06   0.712
  SC_ISD-147               105.00       0.00       0.00      12.28      49.73      23.71      73.44        0.16     0.08   0.699
  SC_ISD-148               105.00       0.00       0.00      12.28      49.73      23.71      73.44        0.17     0.08   0.699
  SC_ISD-149               105.00       0.00       0.00      12.28      50.08      25.32      75.40        0.12     0.06   0.718
  SC_ISD-150               105.00       0.00       0.00      12.28      50.06      25.24      75.31        0.12     0.06   0.717
  SC_ISD-151               105.00       0.00       0.00      12.28      48.93      20.54      69.47        0.30     0.15   0.662
  SC_ISD-152               105.00       0.00       0.00      21.83      34.10      14.78      48.88        0.39     0.19   0.465
  SC_ISD-153               105.00       0.00       0.00      21.83      34.71      18.34      53.05        0.29     0.14   0.505
  SC_ISD-154               105.00       0.00       0.00      21.83      35.36      24.09      59.44        0.14     0.07   0.566
  SC_ISD-155               105.00       0.00       0.00       0.00      95.88       0.00      95.88        0.24     0.13   0.913
  SC_ISD-156               105.00       0.00       0.00       0.53      93.43       2.82      96.25        0.21     0.11   0.917
  SC_ISD-157               105.00       0.00       0.00       2.09      84.27      10.25      94.52        0.21     0.11   0.900
  SC_ISD-158               105.00       0.00       0.00       3.58      75.20      16.07      91.26        0.23     0.12   0.869
  SC_ISD-159               105.00       0.00       0.00       2.60      81.40      12.46      93.86        0.21     0.11   0.894
  SC_ISD-160               105.00       0.00       0.00      10.42      57.51      23.10      80.61        0.13     0.07   0.768
  SC_ISD-161               105.00       0.00       0.00      11.13      54.83      24.58      79.41        0.11     0.06   0.756
  SC_ISD-162               105.00       0.00       0.00      11.62      52.48      23.63      76.11        0.15     0.08   0.725
  SC_ISD-163               105.00       0.00       0.00      11.96      50.98      23.38      74.36        0.16     0.08   0.708
  SC_ISD-164               105.00       0.00       0.00      12.21      50.52      25.97      76.49        0.10     0.05   0.728
  SC_ISD-165               105.00       0.00       0.00      12.16      50.62      25.45      76.07        0.11     0.06   0.724
  SC_ISD-166               105.00       0.00       0.00      12.26      50.07      24.78      74.85        0.13     0.06   0.713
  SC_ISD-167               105.00       0.00       0.00      12.28      50.01      24.98      74.99        0.12     0.06   0.714
  SC_ISD-168               105.00       0.00       0.00      12.28      48.68      19.67      68.35        0.30     0.15   0.651
  SC_ISD-169               105.00       0.00       0.00      12.28      48.36      18.66      67.02        0.34     0.17   0.638
  SC_ISD-170               105.00       0.00       0.00      12.28      49.53      22.83      72.36        0.19     0.09   0.689
  SC_ISD-171               105.00       0.00       0.00      12.28      49.97      24.78      74.75        0.16     0.08   0.712
  SC_ISD-172               105.00       0.00       0.00      12.28      49.99      24.89      74.88        0.13     0.07   0.713
  SC_ISD-173               105.00       0.00       0.00      12.28      50.01      25.00      75.02        0.12     0.06   0.714
  SC_ISD-174               105.00       0.00       0.00      12.28      50.05      25.19      75.24        0.12     0.06   0.717
  SC_ISD-175               105.00       0.00       0.00      12.28      49.43      22.43      71.86        0.21     0.11   0.684
  SC_ISD-176               105.00       0.00       0.00      12.28      49.41      22.36      71.78        0.21     0.11   0.684
  SC_ISD-177               105.00       0.00       0.00      12.28      49.95      24.68      74.62        0.13     0.07   0.711
  SC_ISD-178               105.00       0.00       0.00      12.28      50.04      25.13      75.17        0.14     0.07   0.716
  SC_ISD-179               105.00       0.00       0.00      12.28      50.00      24.95      74.95        0.13     0.06   0.714
  SC_ISD-180               105.00       0.00       0.00      12.28      50.09      25.39      75.48        0.12     0.06   0.719
  SC_ISD-181               105.00       0.00       0.00      12.28      49.85      24.24      74.09        0.16     0.08   0.706
  SC_ISD-182               105.00       0.00       0.00      12.28      49.89      24.42      74.31        0.16     0.08   0.708
  SC_ISD-183               105.00       0.00       0.00      12.28      50.15      25.67      75.82        0.12     0.06   0.722
  SC_ISD-184               105.00       0.00       0.00      12.28      49.69      23.53      73.22        0.18     0.09   0.697
  SC_ISD-185               105.00       0.00       0.00      12.28      49.68      23.50      73.18        0.19     0.09   0.697
  SC_ISD-186               105.00       0.00       0.00      12.28      50.11      25.49      75.60        0.13     0.07   0.720
  SC_ISD-187               105.00       0.00       0.00      12.28      50.08      25.31      75.39        0.14     0.07   0.718
  SC_ISD-188               105.00       0.00       0.00      12.28      49.85      24.23      74.07        0.19     0.10   0.705
  SC_ISD-189               105.00       0.00       0.00      12.28      49.96      24.75      74.71        0.20     0.10   0.712
  SC_ISD-190               105.00       0.00       0.00      12.28      50.37      26.82      77.20        0.15     0.08   0.735
  SC_ISD-191               105.00       0.00       0.00      12.28      50.30      26.43      76.73        0.16     0.08   0.731
  SC_ISD-192               105.00       0.00       0.00      12.28      50.03      25.09      75.12        0.21     0.11   0.715
  SC_ISD-193               105.00       0.00       0.00      12.28      49.76      23.83      73.59        0.25     0.13   0.701
  SC_ISD-194               105.00       0.00       0.00      12.28      50.13      25.59      75.72        0.18     0.09   0.721
  SC_ISD-195               105.00       0.00       0.00      12.28      49.98      24.85      74.83        0.20     0.10   0.713
  SC_ISD-196               105.00       0.00       0.00      12.28      49.64      23.31      72.95        0.25     0.12   0.695
  SC_ISD-197               105.00       0.00       0.00      12.28      49.82      24.09      73.91        0.18     0.09   0.704
  SC_ISD-198               105.00       0.00       0.00      12.28      49.70      23.56      73.26        0.16     0.08   0.698
  SC_ISD-199               105.00       0.00       0.00      12.28      48.59      19.39      67.98        0.28     0.14   0.647
  SC_ISD-200               105.00       0.00       0.00      12.28      48.70      19.73      68.43        0.26     0.13   0.652
  SC_ISD-201               105.00       0.00       0.00      12.28      49.92      24.58      74.51        0.11     0.06   0.710
  SC_ISD-202               105.00       0.00       0.00      12.28      50.03      25.06      75.09        0.10     0.05   0.715
  SC_ISD-203               105.00       0.00       0.00      12.28      49.94      24.67      74.61        0.12     0.06   0.711
  SC_ISD-204               105.00       0.00       0.00      12.28      49.84      24.18      74.02        0.13     0.07   0.705
  SC_ISD-205               105.00       0.00       0.00      12.28      49.86      24.26      74.12        0.13     0.06   0.706
  SC_ISD-206               105.00       0.00       0.00      12.28      50.12      25.50      75.61        0.10     0.05   0.720
  SC_ISD-207               105.00       0.00       0.00      12.28      50.16      25.72      75.88        0.09     0.05   0.723
  SC_ISD-208               105.00       0.00       0.00      12.28      49.99      24.90      74.89        0.11     0.05   0.713
  SC_ISD-209               105.00       0.00       0.00      12.28      49.79      23.97      73.76        0.13     0.07   0.702
  SC_ISD-210               105.00       0.00       0.00      12.28      49.87      24.33      74.20        0.12     0.06   0.707
  SC_ISD-211               105.00       0.00       0.00      12.28      50.04      25.13      75.16        0.10     0.05   0.716
  SC_ISD-212               105.00       0.00       0.00      12.28      49.79      23.96      73.75        0.12     0.06   0.702
  SC_ISD-213               105.00       0.00       0.00      12.28      49.44      22.47      71.91        0.15     0.07   0.685
  SC_ISD-215               105.00       0.00       0.00      12.28      50.21      25.98      76.20        0.21     0.11   0.726
  SC_ISD-216               105.00       0.00       0.00      12.28      50.38      26.87      77.25        0.20     0.10   0.736
  SC_ISD-217               105.00       0.00       0.00      12.28      50.67      28.43      79.10        0.13     0.07   0.753
  SC_ISD-218               105.00       0.00       0.00      12.28      50.39      26.90      77.29        0.16     0.08   0.736
  SC_ISD-219               105.00       0.00       0.00      12.28      49.81      24.06      73.87        0.22     0.11   0.704
  SC_ISD-220               105.00       0.00       0.00      12.28      49.65      23.35      73.01        0.22     0.11   0.695
  SC_ISD-221               105.00       0.00       0.00      12.28      49.76      23.83      73.59        0.19     0.10   0.701
  SC_ISD-222               105.00       0.00       0.00      12.28      49.97      24.81      74.78        0.14     0.07   0.712
  SC_ISD-223               105.00       0.00       0.00      12.28      50.34      26.63      76.97        0.10     0.05   0.733
  SC_ISD-224               105.00       0.00       0.00      12.28      50.47      27.35      77.82        0.09     0.05   0.741
  SC_ISD-225               105.00       0.00       0.00      12.28      50.36      26.74      77.10        0.10     0.05   0.734
  SC_ISD-226               105.00       0.00       0.00      12.28      49.81      24.07      73.88        0.18     0.09   0.704
  SC_ISD-227               105.00       0.00       0.00      12.28      49.64      23.31      72.95        0.20     0.10   0.695
  SC_ISD-228               105.00       0.00       0.00      12.28      50.09      25.36      75.45        0.12     0.06   0.719
  SC_ISD-229               105.00       0.00       0.00      12.28      50.41      27.04      77.45        0.09     0.05   0.738
  SC_ISD-230               105.00       0.00       0.00      12.28      49.99      24.91      74.90        0.14     0.07   0.713
  SC_ISD-231               105.00       0.00       0.00      12.28      49.98      24.85      74.83        0.14     0.07   0.713
  SC_ISD-232               105.00       0.00       0.00      12.28      49.92      24.55      74.47        0.15     0.08   0.709
  SC_ISD-233               105.00       0.00       0.00      12.28      50.25      26.19      76.45        0.10     0.05   0.728
  SC_ISD-234               105.00       0.00       0.00      12.28      49.68      23.49      73.18        0.18     0.09   0.697
  SC_ISD-235               105.00       0.00       0.00      12.28      49.61      23.18      72.79        0.19     0.09   0.693
  SC_ISD-236               105.00       0.00       0.00      12.28      49.80      23.99      73.78        0.15     0.08   0.703
  SC_ISD-237               105.00       0.00       0.00      12.28      49.69      23.52      73.21        0.15     0.08   0.697
  SC_ISD-238               105.00       0.00       0.00      12.28      50.24      26.10      76.34        0.10     0.05   0.727
  SC_ISD-239               105.00       0.00       0.00      12.28      49.27      21.78      71.05        0.19     0.10   0.677
  SC_ISD-240               105.00       0.00       0.00      12.28      49.37      22.18      71.55        0.18     0.09   0.681
  SC_ISD-241               105.00       0.00       0.00      12.28      49.59      23.07      72.66        0.18     0.09   0.692
  SC_ISD-242               105.00       0.00       0.00      12.28      49.66      23.41      73.07        0.18     0.09   0.696
  SC_ISD-243               105.00       0.00       0.00      12.28      49.70      23.58      73.28        0.16     0.08   0.698
  SC_ISD-244               105.00       0.00       0.00      12.28      49.82      24.10      73.92        0.13     0.06   0.704
  SC_ISD-245               105.00       0.00       0.00      12.28      49.32      21.99      71.31        0.19     0.10   0.679
  SC_ISD-246               105.00       0.00       0.00      12.28      49.82      24.10      73.92        0.16     0.08   0.704
  SC_ISD-247               105.00       0.00       0.00      12.28      49.25      21.72      70.97        0.29     0.14   0.676
  SC_ISD-248               105.00       0.00       0.00      12.28      50.15      25.67      75.82        0.14     0.07   0.722
  SC_ISD-249               105.00       0.00       0.00      12.28      49.64      23.30      72.94        0.23     0.12   0.695
  SC_ISD-250               105.00       0.00       0.00      12.28      50.32      26.55      76.87        0.11     0.06   0.732
  SC_ISD-251               105.00       0.00       0.00      12.28      50.07      25.29      75.36        0.15     0.08   0.718
  SC_ISD-252               105.00       0.00       0.00      12.28      49.54      22.86      72.40        0.22     0.11   0.689
  SC_ISD-253               105.00       0.00       0.00      12.19      48.74      18.65      67.39        0.38     0.19   0.642
  SC_ISD-254               105.00       0.00       0.00      11.84      51.06      21.75      72.81        0.19     0.10   0.693
  SC_ISD-255               105.00       0.00       0.00      12.24      48.86      19.63      68.49        0.31     0.15   0.652
  SC_ISD-256               105.00       0.00       0.00      12.85      46.38      19.42      65.80        0.35     0.17   0.627
  SC_ISD-257               105.00       0.00       0.00      26.44      21.44      18.38      39.83        0.26     0.12   0.379
  SC_ISD-258               105.00       0.00       0.00      21.83      34.64      17.88      52.52        0.33     0.16   0.500
  SC_ISD-259               105.00       0.00       0.00      21.83      34.77      18.81      53.58        0.32     0.15   0.510
  SC_ISD-260               105.00       0.00       0.00      21.83      34.90      19.77      54.67        0.29     0.14   0.521
  SC_ISD-261               105.00       0.00       0.00      21.83      35.28      23.28      58.57        0.16     0.08   0.558
  SC_ISD-262               105.00       0.00       0.00      21.83      35.60      27.03      62.62        0.09     0.04   0.596
  SC_ISD-263               105.00       0.00       0.00      21.83      35.50      25.82      61.32        0.10     0.05   0.584
  SC_ISD-264               105.00       0.00       0.00      21.83      35.58      26.80      62.38        0.08     0.04   0.594
  SC_ISD-265               105.00       0.00       0.00      21.83      34.66      18.02      52.69        0.32     0.15   0.502
  SC_ISD-266               105.00       0.00       0.00      21.83      34.59      17.53      52.11        0.31     0.15   0.496
  SC_ISD-267               105.00       0.00       0.00      21.83      35.11      21.59      56.70        0.17     0.08   0.540
  SC_ISD-268               105.00       0.00       0.00      21.83      34.37      16.22      50.59        0.42     0.20   0.482
  SC_ISD-269               105.00       0.00       0.00      21.83      34.27      15.66      49.93        0.49     0.24   0.476
  SC_ISD-270               105.00       0.00       0.00      21.83      35.07      21.22      56.29        0.19     0.09   0.536
  SC_ISD-271               105.00       0.00       0.00      21.83      34.91      19.82      54.73        0.22     0.11   0.521
  SC_ISD-272               105.00       0.00       0.00      21.83      34.86      19.46      54.32        0.18     0.09   0.517
  SC_ISD-273               105.00       0.00       0.00      12.46      49.83      27.86      77.69        0.09     0.05   0.740
  SC_ISD-274               105.00       0.00       0.00      12.82      48.50      29.38      77.88        0.07     0.04   0.742
  SC_ISD-275               105.00       0.00       0.00      14.05      43.31      29.31      72.62        0.09     0.05   0.692
  SC_ISD-276               105.00       0.00       0.00      22.27      34.31      27.41      61.72        0.08     0.04   0.588
  SC_ISD-277               105.00       0.00       0.00      26.54      21.55      29.89      51.44        0.07     0.03   0.490
  SC_ISD-278               105.00       0.00       0.00      32.31       3.96      32.59      36.55        0.05     0.03   0.348
  SC_ISD-279               105.00       0.00       0.00      33.59       0.00      32.84      32.84        0.05     0.03   0.313
  SC_ISD-280               105.00       0.00       0.00      33.59       0.00      32.96      32.96        0.04     0.03   0.314
  SC_ISD-281               105.00       0.00       0.00      21.83      35.53      26.22      61.75        0.08     0.04   0.588
  SC_ISD-282               105.00       0.00       0.00      21.83      35.49      25.61      61.10        0.08     0.04   0.582
  SC_ISD-283               105.00       0.00       0.00      21.83      35.59      26.98      62.58        0.07     0.03   0.596
  SC_ISD-285               105.00       0.00       0.00      21.83      35.29      23.33      58.62        0.13     0.06   0.558
  SC_ISD-286               105.00       0.00       0.00      21.83      35.28      23.25      58.53        0.14     0.07   0.557
  SC_ISD-287               105.00       0.00       0.00      21.83      35.27      23.19      58.46        0.13     0.06   0.557
  SC_ISD-288               105.00       0.00       0.00      21.83      35.54      26.30      61.84        0.08     0.04   0.589
  SC_ISD-289               105.00       0.00       0.00      21.83      35.59      26.96      62.55        0.08     0.04   0.596
  SC_ISD-290               105.00       0.00       0.00      21.83      35.57      26.66      62.23        0.08     0.04   0.593
  SC_ISD-291               105.00       0.00       0.00      21.83      35.51      25.94      61.45        0.09     0.04   0.585
  SC_ISD-292               105.00       0.00       0.00      21.83      35.55      26.48      62.03        0.08     0.04   0.591
  SC_ISD-293               105.00       0.00       0.00      21.83      35.56      26.53      62.09        0.08     0.04   0.591
  SC_ISD-294               105.00       0.00       0.00      21.83      35.33      23.81      59.14        0.11     0.05   0.563
  SC_ISD-295               105.00       0.00       0.00      21.83      35.21      22.56      57.77        0.13     0.06   0.550
  SC_ISD-296               105.00       0.00       0.00      21.83      35.26      23.03      58.29        0.12     0.06   0.555
  SC_ISD-297               105.00       0.00       0.00      21.83      35.27      23.17      58.44        0.13     0.06   0.557
  SC_ISD-298               105.00       0.00       0.00      21.83      35.48      25.51      60.98        0.09     0.05   0.581
  SC_ISD-299               105.00       0.00       0.00      21.83      35.55      26.40      61.95        0.08     0.04   0.590
  SC_ISD-300               105.00       0.00       0.00      21.83      35.58      26.81      62.38        0.08     0.04   0.594
  SC_ISD-301               105.00       0.00       0.00      21.83      35.58      26.81      62.39        0.08     0.04   0.594
  SC_ISD-302               105.00       0.00       0.00      21.83      35.48      25.56      61.04        0.10     0.05   0.581
  SC_ISD-303               105.00       0.00       0.00      21.83      35.61      27.24      62.85        0.08     0.04   0.599
  SC_ISD-304               105.00       0.00       0.00      21.83      35.53      26.21      61.75        0.11     0.05   0.588
  SC_ISD-305               105.00       0.00       0.00      21.83      35.67      28.05      63.72        0.08     0.04   0.607
  SC_ISD-306               105.00       0.00       0.00      21.83      35.62      27.32      62.94        0.09     0.05   0.599
  SC_ISD-307               105.00       0.00       0.00      21.83      35.85      30.75      66.60        0.06     0.03   0.634
  SC_ISD-308               105.00       0.00       0.00      21.83      35.55      26.44      62.00        0.10     0.05   0.590
  SC_ISD-309               105.00       0.00       0.00      21.83      35.45      25.16      60.61        0.13     0.06   0.577
  SC_ISD-310               105.00       0.00       0.00      21.83      35.54      26.27      61.81        0.10     0.05   0.589
  SC_ISD-311               105.00       0.00       0.00      21.83      35.51      25.88      61.39        0.11     0.05   0.585
  SC_ISD-312               105.00       0.00       0.00      21.83      35.50      25.83      61.33        0.11     0.05   0.584
  SC_ISD-313               105.00       0.00       0.00      21.83      35.52      26.03      61.55        0.10     0.05   0.586
  SC_ISD-314               105.00       0.00       0.00      21.83      35.53      26.13      61.65        0.10     0.05   0.587
  SC_ISD-315               105.00       0.00       0.00      21.83      35.53      26.22      61.75        0.10     0.05   0.588
  SC_ISD-316               105.00       0.00       0.00      21.83      35.50      25.83      61.33        0.10     0.05   0.584
  SC_ISD-317               105.00       0.00       0.00      21.83      35.46      25.25      60.71        0.11     0.06   0.578
  SC_ISD-318               105.00       0.00       0.00      21.83      35.34      23.91      59.25        0.14     0.07   0.564
  SC_ISD-319               105.00       0.00       0.00      21.83      35.39      24.48      59.87        0.12     0.06   0.570
  SC_ISD-320               105.00       0.00       0.00      21.83      35.31      23.58      58.89        0.14     0.07   0.561
  SC_ISD-321               105.00       0.00       0.00      21.83      35.35      23.99      59.33        0.13     0.06   0.565
  SC_ISD-322               105.00       0.00       0.00      21.83      35.56      26.51      62.07        0.09     0.04   0.591
  SC_ISD-323               105.00       0.00       0.00      21.83      35.46      25.36      60.82        0.10     0.05   0.579
  SC_ISD-324               105.00       0.00       0.00      21.83      35.45      25.23      60.69        0.10     0.05   0.578
  SC_ISD-325               105.00       0.00       0.00      21.83      35.56      26.50      62.06        0.09     0.04   0.591
  SC_ISD-326               105.00       0.00       0.00      21.83      35.59      26.93      62.51        0.08     0.04   0.595
  SC_ISD-327               105.00       0.00       0.00      21.83      35.59      26.89      62.48        0.08     0.04   0.595
  SC_ISD-328               105.00       0.00       0.00      21.83      35.58      26.87      62.46        0.08     0.04   0.595
  SC_ISD-329               105.00       0.00       0.00      21.83      35.50      25.77      61.27        0.10     0.05   0.584
  SC_ISD-330               105.00       0.00       0.00      21.83      35.58      26.77      62.35        0.09     0.04   0.594
  SC_ISD-331               105.00       0.00       0.00      21.83      35.63      27.50      63.13        0.08     0.04   0.601
  SC_ISD-332               105.00       0.00       0.00      21.83      35.64      27.64      63.28        0.08     0.04   0.603
  SC_ISD-333               105.00       0.00       0.00      21.83      35.62      27.36      62.98        0.09     0.04   0.600
  SC_ISD-334               105.00       0.00       0.00      21.83      35.58      26.77      62.35        0.10     0.05   0.594
  SC_ISD-335               105.00       0.00       0.00      21.83      35.63      27.45      63.07        0.09     0.04   0.601
  SC_ISD-336               105.00       0.00       0.00      21.83      35.61      27.20      62.81        0.08     0.04   0.598
  SC_ISD-337               105.00       0.00       0.00      21.83      35.50      25.85      61.35        0.10     0.05   0.584
  SC_ISD-338               105.00       0.00       0.00      21.83      35.53      26.18      61.71        0.09     0.04   0.588
  SC_ISD-339               105.00       0.00       0.00      21.83      35.57      26.64      62.20        0.08     0.04   0.592
  SC_ISD-340               105.00       0.00       0.00      21.83      35.53      26.17      61.70        0.08     0.04   0.588
  SC_ISD-341               105.00       0.00       0.00      21.83      35.50      25.74      61.24        0.09     0.04   0.583
  SC_ISD-342               105.00       0.00       0.00      21.83      35.54      26.25      61.79        0.09     0.04   0.588
  SC_ISD-343               105.00       0.00       0.00      21.83      35.51      25.91      61.42        0.10     0.05   0.585
  SC_ISD-344               105.00       0.00       0.00      21.83      35.57      26.65      62.21        0.09     0.05   0.592
  SC_ISD-345               105.00       0.00       0.00      21.83      35.39      24.44      59.83        0.13     0.06   0.570
  SC_ISD-346               105.00       0.00       0.00      21.83      35.34      23.92      59.26        0.13     0.06   0.564
  SC_ISD-347               105.00       0.00       0.00      21.83      35.39      24.52      59.92        0.12     0.06   0.571
  SC_ISD-348               105.00       0.00       0.00      21.83      35.33      23.84      59.18        0.13     0.06   0.564
  SC_ISD-349               105.00       0.00       0.00      21.83      35.51      25.93      61.44        0.09     0.05   0.585
  SC_ISD-350               105.00       0.00       0.00      21.83      35.98      33.02      69.00        0.03     0.02   0.657
  SC_ISD-351               105.00       0.00       0.00      21.83      35.71      28.69      64.40        0.06     0.03   0.613
  SC_ISD-352               105.00       0.00       0.00      21.83      35.56      26.54      62.10        0.09     0.04   0.591
  SC_ISD-353               105.00       0.00       0.00      21.83      35.63      27.50      63.13        0.08     0.04   0.601
  SC_ISD-354               105.00       0.00       0.00      21.83      35.61      27.23      62.84        0.08     0.04   0.598
  SC_ISD-355               105.00       0.00       0.00      21.83      35.60      27.11      62.71        0.08     0.04   0.597
  SC_ISD-356               105.00       0.00       0.00      21.83      35.14      21.88      57.02        0.20     0.09   0.543
  SC_ISD-357               105.00       0.00       0.00      21.83      35.16      22.07      57.24        0.20     0.10   0.545
  SC_ISD-358               105.00       0.00       0.00      21.83      35.59      26.95      62.54        0.09     0.05   0.596
  SC_ISD-359               105.00       0.00       0.00      21.83      35.30      23.50      58.80        0.13     0.06   0.560
  SC_ISD-360               105.00       0.00       0.00      21.83      35.75      29.23      64.97        0.05     0.03   0.619
  SC_ISD-361               105.00       0.00       0.00      21.83      35.74      29.15      64.89        0.05     0.03   0.618
  SC_ISD-362               105.00       0.00       0.00      21.83      35.57      26.68      62.25        0.08     0.04   0.593
  SC_ISD-363               105.00       0.00       0.00      21.83      35.52      26.08      61.61        0.09     0.04   0.587
  SC_ISD-364               105.00       0.00       0.00      21.83      35.55      26.44      61.99        0.08     0.04   0.590
  SC_ISD-365               105.00       0.00       0.00      21.83      35.56      26.55      62.11        0.08     0.04   0.591
  SC_ISD-366               105.00       0.00       0.00      21.83      33.52      12.40      45.93        0.87     0.42   0.437
  SC_ISD-367               105.00       0.00       0.00       8.87      60.77      15.98      76.75        1.03     0.53   0.731
  SC_ISD-368               105.00       0.00       0.00       2.65      83.17      13.42      96.59        0.13     0.07   0.920
  SC_ISD-369               105.00       0.00       0.00       2.37      84.61      12.02      96.63        0.16     0.09   0.920
  SC_ISD-370               105.00       0.00       0.00       2.11      86.55      10.85      97.40        0.13     0.07   0.928
  SC_ISD-371               105.00       0.00       0.00       2.01      87.15      10.41      97.56        0.13     0.07   0.929
  SC_ISD-372               105.00       0.00       0.00       2.00      86.85      10.25      97.10        0.16     0.09   0.925
  SC_ISD-373               105.00       0.00       0.00       2.15      85.84      10.98      96.82        0.17     0.09   0.922
  SC_ISD-374               105.00       0.00       0.00       2.31      85.18      11.78      96.97        0.13     0.07   0.923
  SC_ISD-375               105.00       0.00       0.00       2.51      83.93      12.73      96.66        0.12     0.07   0.921
  SC_ISD-376               105.00       0.00       0.00       2.79      81.68      13.80      95.49        0.15     0.08   0.909
  SC_ISD-377               105.00       0.00       0.00       3.16      79.50      15.50      95.00        0.13     0.07   0.905
  SC_ISD-378               105.00       0.00       0.00       3.44      78.23      17.01      95.24        0.09     0.05   0.907
  SC_ISD-379               105.00       0.00       0.00       3.69      76.82      18.22      95.04        0.08     0.04   0.905
  SC_ISD-380               105.00       0.00       0.00       4.00      74.33      19.06      93.38        0.11     0.06   0.889
  SC_ISD-381               105.00       0.00       0.00       4.12      73.15      19.15      92.30        0.12     0.07   0.879
  SC_ISD-382               105.00       0.00       0.00       4.40      71.87      20.76      92.63        0.08     0.04   0.882
  SC_ISD-383               105.00       0.00       0.00       7.74      69.14      20.43      89.57        0.07     0.04   0.853
  SC_ISD-384               105.00       0.00       0.00       8.13      67.05      20.39      87.44        0.11     0.06   0.833
  SC_ISD-385               105.00       0.00       0.00       8.57      64.92      20.53      85.45        0.14     0.08   0.814
  SC_ISD-386               105.00       0.00       0.00       8.94      63.68      21.60      85.28        0.12     0.06   0.812
  SC_ISD-387               105.00       0.00       0.00       9.16      63.18      22.88      86.06        0.08     0.04   0.820
  SC_ISD-388               105.00       0.00       0.00       9.34      62.52      23.28      85.80        0.08     0.04   0.817
  SC_ISD-389               105.00       0.00       0.00       9.46      61.68      22.63      84.31        0.10     0.05   0.803
  SC_ISD-390               105.00       0.00       0.00       9.66      60.52      21.98      82.50        0.14     0.07   0.786
  SC_ISD-391               105.00       0.00       0.00       9.75      60.31      22.59      82.90        0.12     0.06   0.790
  SC_ISD-392               105.00       0.00       0.00       9.83      60.06      22.83      82.89        0.11     0.06   0.789
  SC_ISD-393               105.00       0.00       0.00       9.88      59.56      22.11      81.67        0.13     0.07   0.778
  SC_ISD-394               105.00       0.00       0.00       9.90      59.71      22.79      82.51        0.11     0.06   0.786
  SC_ISD-395               105.00       0.00       0.00       9.90      60.12      23.94      84.06        0.07     0.04   0.801
  SC_ISD-396               105.00       0.00       0.00       9.90      60.11      23.91      84.02        0.07     0.04   0.800
  SC_ISD-397               105.00       0.00       0.00       9.66      60.61      22.21      82.81        0.11     0.06   0.789
  SC_ISD-398               105.00       0.00       0.00       8.38      64.83      18.73      83.56        0.14     0.07   0.796
  SC_ISD-399               105.00       0.00       0.00       9.66      60.49      21.91      82.40        0.11     0.06   0.785
  SC_ISD-400               105.00       0.00       0.00       9.61      61.17      23.07      84.24        0.07     0.04   0.802
  SC_ISD-401               105.00       0.00       0.00       9.58      61.26      23.02      84.28        0.07     0.04   0.803
  SC_ISD-402               105.00       0.00       0.00       9.58      60.83      21.93      82.76        0.11     0.06   0.788
  SC_ISD-403               105.00       0.00       0.00       9.58      60.49      21.11      81.59        0.14     0.07   0.777
  SC_ISD-404               105.00       0.00       0.00       9.66      60.49      21.93      82.42        0.11     0.06   0.785
  SC_ISD-405               105.00       0.00       0.00       9.68      60.92      23.33      84.25        0.07     0.04   0.802
  SC_ISD-406               105.00       0.00       0.00       9.70      60.76      23.20      83.96        0.07     0.04   0.800
  SC_ISD-407               105.00       0.00       0.00       9.78      60.07      22.27      82.34        0.10     0.05   0.784
  SC_ISD-408               105.00       0.00       0.00       9.88      59.67      22.38      82.05        0.10     0.05   0.781
  SC_ISD-409               105.00       0.00       0.00      10.02      59.49      23.76      83.25        0.07     0.04   0.793
  SC_ISD-410               105.00       0.00       0.00       9.93      59.85      23.50      83.36        0.08     0.04   0.794
  SC_ISD-411               105.00       0.00       0.00      10.07      59.28      23.77      83.05        0.08     0.04   0.791
  SC_ISD-412               105.00       0.00       0.00      10.12      59.19      24.18      83.36        0.07     0.04   0.794
  SC_ISD-413               105.00       0.00       0.00      10.22      58.34      22.98      81.32        0.11     0.06   0.774
  SC_ISD-414               105.00       0.00       0.00      10.37      57.53      22.52      80.05        0.13     0.07   0.762
  SC_ISD-415               105.00       0.00       0.00      10.49      57.41      23.81      81.22        0.10     0.05   0.774
  SC_ISD-416               105.00       0.00       0.00      10.59      57.37      25.15      82.52        0.07     0.04   0.786
  SC_ISD-417               105.00       0.00       0.00      10.69      57.05      25.59      82.64        0.07     0.04   0.787
  SC_ISD-418               105.00       0.00       0.00      10.79      56.31      24.47      80.78        0.10     0.05   0.769
  SC_ISD-419               105.00       0.00       0.00      10.93      55.63      24.36      79.99        0.11     0.06   0.762
[...]
  C_1113                      0.63      0.64      0.63      0.68         0.63
  C_1114                      0.63      0.63      0.63      0.67         0.62
  C_1115                      0.63      0.63      0.63      0.01         0.01
  C_1116                      0.63      0.63      0.63      0.23         0.16
  C_1117                      0.62      0.63      0.62      0.67         0.62
  C_1118                      0.62      0.62      0.62      0.16         0.14
  C_1119                      0.62      0.62      0.62      0.44         0.25
  C_1120                      0.62      0.62      0.62      0.64         0.43
  C_1121                      0.62      0.62      0.62      0.64         0.60
  C_1122                      0.62      0.62      0.62      0.10         0.10
  C_1123                      0.62      0.62      0.62      0.51         0.41
  C_1124                      0.62      0.62      0.62      0.64         0.62
  C_1125                      0.62      0.62      0.62      0.64         0.62
  C_1126                      0.62      0.62      0.62      0.62         0.62
  C_1127                      0.62      0.62      0.62      0.63         0.61
  C_1128                      0.61      0.62      0.61      0.64         0.61
  C_1129                      0.61      0.61      0.61      0.62         0.61
  C_1130                      0.61      0.61      0.61      0.63         0.61
  C_1131                      0.61      0.61      0.61      0.63         0.61
  C_1132                      0.61      0.61      0.61      0.02         0.18
  C_1133                      0.60      0.61      0.60      0.61         0.60
  C_1134                      0.60      0.60      0.60      0.61         0.60
  C_1135                      0.61      0.61      0.61      0.61         0.60
  C_1136                      0.60      0.60      0.60      0.61         0.60
  C_1137                      0.60      0.60      0.60      0.60         0.60
  C_1138                      0.60      0.60      0.60      0.60         0.60
  C_1139                      0.59      0.59      0.60      0.60         0.01
  C_1140                      0.59      0.59      0.59      0.60         0.59
  C_1141                      0.58      0.59      0.58      0.59         0.58
  C_1142                      0.58      0.58      0.58      0.59         0.58
  C_1143                      0.58      0.58      0.58      0.59         0.01
  C_1144                      0.03      0.58      0.03      0.59         0.03
  C_1145                      0.51      0.55      0.51      0.60         0.51
  C_1146                      0.55      0.58      0.55      0.73         0.55
  C_1147                      0.58      0.60      0.58      0.74         0.58
  C_1148                      0.60      0.60      0.60      0.59         0.59
  C_1149                      0.58      0.58      0.60      0.56         0.56
  C_1150                      0.58      0.58      0.58      0.55         0.55
  C_1151                      0.58      0.58      0.58      0.56         0.56
  C_1152                      0.57      0.57      0.58      0.55         0.55
  C_1153                      0.57      0.57      0.57      0.53         0.53
  C_1154                      0.56      0.56      0.57      0.50         0.50
  C_1155                      0.55      0.55      0.56      0.34         0.28
  C_1156                      0.55      0.55      0.55      0.03         0.02
  C_1157                      0.54      0.54      0.55      0.01         0.01
  C_1158                      0.53      0.53      0.54      0.01         0.01
  C_1159                      0.51      0.51      0.52      0.01         0.01
  C_1160                      0.52      0.52      0.53      0.20         0.15
  C_1161                      0.51      0.51      0.51      0.01         0.01
  C_1162                      0.49      0.49      0.51      0.01         0.01
  C_1163                      0.45      0.45      0.49      0.01         0.01
  C_1164                      0.30      0.30      0.45      0.01         0.01
  C_1165                      0.01      0.01      0.03      0.01         0.01
  C_1188                      0.01      0.01      0.35      0.01         0.01
  C_1189                      0.35      0.35      0.37      0.01         0.01
  C_1190                      0.37      0.37      0.39      0.01         0.01
  C_1191                      0.39      0.39      0.39      0.01         0.01
  C_1192                      0.39      0.39      0.41      0.24         0.21
  C_1193                      0.41      0.41      0.44      0.35         0.35
  C_1194                      0.42      0.44      0.42      0.46         0.42
  C_1195                      0.01      0.42      0.01      0.44         0.01
  C_1197                      0.64      0.65      0.64      0.71         0.64
  C_1198                      0.65      0.65      0.65      0.13         0.06
  C_1199                      0.65      0.65      0.65      0.01         0.01
  C_1200                      0.64      0.64      0.65      0.62         0.50
  C_1201                      0.64      0.64      0.64      0.64         0.64
  C_1202                      0.64      0.64      0.64      0.03         0.06
  C_1203                      0.64      0.64      0.64      0.62         0.50
  C_1204                      0.64      0.64      0.64      0.43         0.30
  C_1205                      0.64      0.64      0.64      0.04         0.23
  C_1206                      0.64      0.64      0.64      0.66         0.61
  C_1207                      0.64      0.64      0.64      0.08         0.03
  C_1208                      0.63      0.63      0.64      0.01         0.01
  C_1209                      0.63      0.63      0.63      0.64         0.63
  C_1210                      0.63      0.63      0.63      0.01         0.01
  C_1211                      0.63      0.63      0.63      0.01         0.28
  C_1212                      0.63      0.63      0.63      0.57         0.58
  C_1213                      0.62      0.62      0.63      0.01         0.01
  C_1214                      0.55      0.55      0.58      0.01         0.01
  C_1215                      0.52      0.52      0.55      0.01         0.01
  C_1216                      0.32      0.32      0.41      0.01         0.01
  C_1217                      0.13      0.13      0.32      0.01         0.01
  C_1218                      0.01      0.01      0.13      0.01         0.01
  C_1222                      0.01      0.01      0.01      0.58         0.01
  C_1236                      0.01      0.43      0.01      0.55         0.01
  C_1237                      0.01      0.01      0.01      0.08         0.01
  C_1239                      0.45      0.45      0.55      0.63         0.01
  C_1240                      0.43      0.45      0.43      0.54         0.43
  C_1242                      0.01      0.01      0.01      0.58         0.01
  C_1244                      0.01      0.01      0.57      0.01         0.01
  C_1245                      0.57      0.57      0.59      0.01         0.01
  C_1246                      0.59      0.59      0.59      0.01         0.01
  C_1247                      0.59      0.59      0.59      0.01         0.01
  C_1248                      0.59      0.59      0.60      0.01         0.01
  C_1249                      0.60      0.60      0.61      0.01         0.01
  C_1250                      0.61      0.61      0.61      0.01         0.06
  C_1251                      0.61      0.61      0.61      0.01         0.14
  C_1252                      0.61      0.61      0.61      0.61         0.01
  C_1253                      0.61      0.61      0.61      0.58         0.01
  C_1254                      0.60      0.60      0.61      0.01         0.01
  C_1255                      0.60      0.60      0.60      0.01         0.01
  C_1256                      0.60      0.60      0.61      0.08         0.01
  C_1257                      0.61      0.61      0.64      0.01         0.01
  C_1258                      0.64      0.64      0.65      0.01         0.01
  C_1259                      0.67      0.67      0.68      0.01         0.01
  C_1260                      0.65      0.65      0.65      0.76         0.64
  C_1261                      0.65      0.65      0.65      0.01         0.01
  C_1262                      0.64      0.64      0.65      0.01         0.01
  C_1263                      0.64      0.64      0.64      0.01         0.02
  C_1264                      0.64      0.64      0.64      0.24         0.23
  C_1265                      0.63      0.63      0.64      0.01         0.01
  C_1266                      0.62      0.62      0.63      0.01         0.01
  C_1267                      0.58      0.58      0.62      0.01         0.01
  C_1268                      0.57      0.57      0.58      0.01         0.01
  C_1269                      0.43      0.43      0.57      0.01         0.01
  C_1270                      0.01      0.01      0.43      0.01         0.01
  C_1276                      0.01      0.37      0.01      0.45         0.01
  C_1277                      0.37      0.39      0.37      0.47         0.37
  C_1278                      0.38      0.38      0.46      0.55         0.01
  C_1279                      0.46      0.54      0.46      0.68         0.46
  C_1280                      0.54      0.55      0.54      0.72         0.54
  C_1281                      0.55      0.55      0.55      0.60         0.01
  C_1282                      0.55      0.55      0.55      0.54         0.52
  C_1283                      0.55      0.55      0.55      0.37         0.37
  C_1284                      0.55      0.55      0.55      0.49         0.48
  C_1285                      0.55      0.55      0.55      0.36         0.36
  C_1286                      0.54      0.54      0.55      0.46         0.46
  C_1287                      0.50      0.50      0.54      0.01         0.01
  C_1288                      0.50      0.50      0.50      0.41         0.41
  C_1289                      0.49      0.49      0.50      0.01         0.07
  C_1290                      0.47      0.47      0.49      0.01         0.01
  C_1291                      0.47      0.47      0.48      0.58         0.01
  C_1292                      0.44      0.44      0.48      0.01         0.01
  C_1293                      0.44      0.44      0.44      0.46         0.43
  C_1294                      0.44      0.44      0.44      0.53         0.44
  C_1295                      0.44      0.45      0.44      0.56         0.44
  C_1296                      0.45      0.45      0.45      0.43         0.38
  C_1297                      0.44      0.44      0.45      0.34         0.29
  C_1298                      0.44      0.44      0.44      0.38         0.35
  C_1299                      0.43      0.43      0.44      0.01         0.01
  C_1300                      0.43      0.43      0.43      0.01         0.01
  C_1301                      0.42      0.42      0.43      0.01         0.01
  C_1302                      0.41      0.41      0.42      0.01         0.01
  C_1303                      0.40      0.40      0.41      0.01         0.01
  C_1304                      0.40      0.40      0.40      0.34         0.32
  C_1305                      0.39      0.39      0.40      0.01         0.01
  C_1306                      0.38      0.38      0.39      0.01         0.01
  C_1307                      0.37      0.37      0.38      0.01         0.01
  C_1308                      0.36      0.36      0.37      0.01         0.01
  C_1309                      0.35      0.35      0.36      0.01         0.01
  C_1310                      0.33      0.33      0.35      0.01         0.01
  C_1311                      0.31      0.31      0.33      0.01         0.01
  C_1312                      0.29      0.29      0.31      0.01         0.01
  C_1313                      0.01      0.01      0.29      0.01         0.01
  C_1322                      0.01      0.01      0.01      0.59         0.01
  C_1325                      0.35      0.49      0.35      0.60         0.35
  C_1326                      0.47      0.47      0.49      0.42         0.42
  C_1327                      0.28      0.28      0.47      0.01         0.01
  C_1328                      0.20      0.20      0.28      0.01         0.01
  C_1329                      0.16      0.16      0.20      0.01         0.01
  C_1330                      0.01      0.01      0.16      0.01         0.01
  C_1333                      0.01      0.01      0.01      0.50         0.01
  C_1334                      0.01      0.01      0.01      0.62         0.01
  C_1335                      0.01      0.01      0.01      0.05         0.01
  C_1336                      0.01      0.08      0.01      0.63         0.01
  C_1337                      0.08      0.08      0.26      0.62         0.01
  C_1338                      0.26      0.26      0.64      0.11         0.01
  C_1339                      0.64      0.64      0.64      0.01         0.01
  C_1340                      0.64      0.64      0.65      0.01         0.01
  C_1341                      0.65      0.65      0.65      0.01         0.01
  C_1342                      0.65      0.65      0.65      0.11         0.01
  C_1343                      0.65      0.65      0.65      0.01         0.01
  C_1344                      0.65      0.65      0.65      0.55         0.01
  C_1345                      0.65      0.65      0.66      0.01         0.01
  C_1346                      0.66      0.66      0.66      0.01         0.01
  C_1347                      0.66      0.66      0.66      0.67         0.51
  C_1348                      0.66      0.66      0.66      0.67         0.56
  C_1349                      0.66      0.66      0.67      0.01         0.01
  C_1350                      0.70      0.70      0.70      0.67         0.01
  C_1351                      0.70      0.70      0.70      0.68         0.68
  C_1352                      0.68      0.68      0.70      0.02         0.02
  C_1353                      0.67      0.67      0.68      0.41         0.41
  C_1354                      0.67      0.67      0.67      0.01         0.01
  C_1355                      0.67      0.67      0.67      0.01         0.01
  C_1356                      0.67      0.67      0.67      0.69         0.42
  C_1357                      0.67      0.67      0.67      0.04         0.03
  C_1358                      0.67      0.67      0.67      0.04         0.12
  C_1359                      0.67      0.67      0.67      0.45         0.44
  C_1360                      0.67      0.67      0.68      0.01         0.01
  C_1361                      0.68      0.68      0.72      0.01         0.01
  C_1362                      0.72      0.72      0.73      0.01         0.01
  C_1363                      0.73      0.73      0.73      0.50         0.01
  C_1364                      0.73      0.73      0.73      0.14         0.03
  C_1365                      0.73      0.73      0.73      0.10         0.03
  C_1366                      0.71      0.71      0.73      0.01         0.01
  C_1367                      0.70      0.70      0.71      0.01         0.01
  C_1368                      0.69      0.69      0.70      0.01         0.01
  C_1369                      0.67      0.67      0.69      0.01         0.01
  C_1370                      0.67      0.67      0.67      0.01         0.01
  C_1371                      0.67      0.67      0.68      0.01         0.16
  C_1372                      0.68      0.68      0.68      0.01         0.01
  C_1373                      0.68      0.68      0.68      0.01         0.01
  C_1374                      0.68      0.68      0.68      0.01         0.01
  C_1375                      0.68      0.68      0.69      0.01         0.01
  C_1376                      0.69      0.69      0.70      0.01         0.01
  C_1377                      0.70      0.70      0.70      0.01         0.01
  C_1378                      0.70      0.70      0.70      0.65         0.66
  C_1379                      0.70      0.70      0.70      0.01         0.01
  C_1380                      0.70      0.70      0.70      0.01         0.11
  C_1381                      0.70      0.70      0.70      0.01         0.01
  C_1382                      0.70      0.70      0.70      0.01         0.01
  C_1383                      0.69      0.69      0.70      0.01         0.01
  C_1384                      0.69      0.69      0.69      0.01         0.01
  C_1385                      0.68      0.68      0.69      0.40         0.41
  C_1386                      0.68      0.68      0.68      0.01         0.01
  C_1387                      0.68      0.68      0.68      0.01         0.01
  C_1388                      0.67      0.67      0.68      0.01         0.01
  C_1389                      0.01      0.01      0.67      0.01         0.01
  C_1391                      0.01      0.01      0.13      0.01         0.01
  C_1392                      0.13      0.13      0.23      0.01         0.01
  C_1393                      0.23      0.23      0.38      0.01         0.01
  C_1394                      0.38      0.38      0.40      0.01         0.01
  C_1395                      0.40      0.40      0.41      0.01         0.01
  C_1396                      0.41      0.41      0.57      0.01         0.01
  C_1397                      0.56      0.57      0.56      0.66         0.56
  C_1398                      0.56      0.56      0.56      0.56         0.56
  C_1399                      0.56      0.56      0.56      0.58         0.56
  C_1400                      0.01      0.01      0.56      0.68         0.01
  C_1401                      0.01      0.48      0.01      0.51         0.01
  C_1402                      0.48      0.49      0.48      0.52         0.48
  C_1403                      0.49      0.49      0.50      0.65         0.01
  C_1404                      0.50      0.50      0.50      0.51         0.50
  C_1405                      0.50      0.50      0.50      0.49         0.49
  C_1406                      0.49      0.49      0.50      0.46         0.46
  C_1407                      0.48      0.48      0.49      0.45         0.46
  C_1408                      0.48      0.48      0.48      0.46         0.46
  C_1409                      0.48      0.48      0.48      0.21         0.23
  C_1410                      0.48      0.48      0.48      0.01         0.01
  C_1411                      0.47      0.47      0.48      0.01         0.01
  C_1412                      0.47      0.47      0.47      0.45         0.46
  C_1413                      0.47      0.47      0.47      0.07         0.11
  C_1414                      0.47      0.47      0.47      0.47         0.01
  C_1415                      0.47      0.47      0.47      0.01         0.04
  C_1416                      0.47      0.47      0.47      0.01         0.01
  C_1417                      0.47      0.47      0.47      0.01         0.01
  C_1418                      0.47      0.47      0.47      0.22         0.01
  C_1419                      0.46      0.46      0.46      0.01         0.01
  C_1420                      0.46      0.46      0.46      0.01         0.01
  C_1421                      0.46      0.46      0.46      0.01         0.01
  C_1422                      0.45      0.45      0.46      0.01         0.01
  C_1423                      0.44      0.44      0.45      0.01         0.01
  C_1424                      0.42      0.42      0.42      0.41         0.41
  C_1425                      0.42      0.42      0.44      0.39         0.40
  C_1426                      0.01      0.01      0.62      0.01         0.01
  

  Analysis begun on:  Mon Oct 27 19:13:35 2025
  Analysis ended on:  Mon Oct 27 19:13:40 2025
  Total elapsed time: 00:00:05