
  EPA STORM WATER MANAGEMENT MODEL - VERSION 5.2 (Build 5.2.4)
  PYSWMM TOOLKIT API - VERSION v1.0 (2025-09-04)
  ------------------------------------------------------------

  Mandaue City Drainage Network Model 
  Generated from GIS data 
  2025-10-16 15:17 
  WARNING 04: minimum elevation drop used for Conduit C_181-C-95
  WARNING 04: minimum elevation drop used for Conduit C_224-C-3
  WARNING 04: minimum elevation drop used for Conduit C_230-C-3
  WARNING 04: minimum elevation drop used for Conduit C_242-C-3
  WARNING 04: minimum elevation drop used for Conduit C_243-C-3
  WARNING 04: minimum elevation drop used for Conduit C_328-C-113
  WARNING 04: minimum elevation drop used for Conduit C_331-C-113
  WARNING 04: minimum elevation drop used for Conduit C_341-C-113
  WARNING 04: minimum elevation drop used for Conduit C_377-C-113
  WARNING 04: minimum elevation drop used for Conduit C_386-C-142
  WARNING 04: minimum elevation drop used for Conduit C_394-C-142
  WARNING 04: minimum elevation drop used for Conduit C_406-C-142
  WARNING 04: minimum elevation drop used for Conduit C_429-C-55
  WARNING 04: minimum elevation drop used for Conduit C_436-C-55
  WARNING 04: minimum elevation drop used for Conduit C_441-C-106
  WARNING 04: minimum elevation drop used for Conduit C_446-C-106
  WARNING 04: minimum elevation drop used for Conduit C_462-C-8
  WARNING 04: minimum elevation drop used for Conduit C_478-C-28
  WARNING 04: minimum elevation drop used for Conduit C_479-C-28
  WARNING 04: minimum elevation drop used for Conduit C_483-C-28
  WARNING 04: minimum elevation drop used for Conduit C_492-C-28
  WARNING 04: minimum elevation drop used for Conduit C_585-C-7
  WARNING 04: minimum elevation drop used for Conduit C_587-C-7
  WARNING 04: minimum elevation drop used for Conduit C_591-C-7
  WARNING 04: minimum elevation drop used for Conduit C_597-C-7
  WARNING 04: minimum elevation drop used for Conduit C_600-C-7
  WARNING 04: minimum elevation drop used for Conduit C_603-C-7
  WARNING 04: minimum elevation drop used for Conduit C_642-C-7
  WARNING 04: minimum elevation drop used for Conduit C_649-C-7
  WARNING 04: minimum elevation drop used for Conduit C_671-C-7
  WARNING 04: minimum elevation drop used for Conduit C_677-C-7
  WARNING 04: minimum elevation drop used for Conduit C_737-C-81
  WARNING 04: minimum elevation drop used for Conduit C_752-C-24
  WARNING 04: minimum elevation drop used for Conduit C_783-C-83
  WARNING 04: minimum elevation drop used for Conduit C_786-C-83
  WARNING 04: minimum elevation drop used for Conduit C_798-C-83
  WARNING 04: minimum elevation drop used for Conduit C_857-C-32
  WARNING 04: minimum elevation drop used for Conduit C_909-C-34
  WARNING 04: minimum elevation drop used for Conduit C_921-C-34
  WARNING 04: minimum elevation drop used for Conduit C_953-C-2
  WARNING 04: minimum elevation drop used for Conduit C_964-C-2
  WARNING 04: minimum elevation drop used for Conduit C_1131-C-112
  WARNING 04: minimum elevation drop used for Conduit C_1136-C-112
  WARNING 04: minimum elevation drop used for Conduit C_1138-C-112
  WARNING 04: minimum elevation drop used for Conduit C_1140-C-112
  WARNING 04: minimum elevation drop used for Conduit C_1141-C-112
  WARNING 04: minimum elevation drop used for Conduit C_1144-C-112
  WARNING 04: minimum elevation drop used for Conduit C_1146-C-140
  WARNING 04: minimum elevation drop used for Conduit C_1147-C-140
  WARNING 04: minimum elevation drop used for Conduit C_1234-C-30
  WARNING 04: minimum elevation drop used for Conduit C_1260-C-85
  WARNING 04: minimum elevation drop used for Conduit C_1280-C-35
  WARNING 04: minimum elevation drop used for Conduit C_1347-C-42
  WARNING 04: minimum elevation drop used for Conduit C_1348-C-42
  WARNING 04: minimum elevation drop used for Conduit C_1351-C-89
  WARNING 04: minimum elevation drop used for Conduit C_1356-C-89
  WARNING 04: minimum elevation drop used for Conduit C_1364-C-89
  WARNING 04: minimum elevation drop used for Conduit C_1365-C-89
  WARNING 02: maximum depth increased for Node I-8
  WARNING 02: maximum depth increased for Node I-14
  WARNING 02: maximum depth increased for Node I-23
  WARNING 02: maximum depth increased for Node I-30
  WARNING 02: maximum depth increased for Node I-33
  WARNING 02: maximum depth increased for Node I-35
  WARNING 02: maximum depth increased for Node I-36
  WARNING 02: maximum depth increased for Node I-37
  WARNING 02: maximum depth increased for Node I-41
  WARNING 02: maximum depth increased for Node I-43
  WARNING 02: maximum depth increased for Node I-46
  WARNING 02: maximum depth increased for Node I-50
  WARNING 02: maximum depth increased for Node I-51
  WARNING 02: maximum depth increased for Node I-53
  WARNING 02: maximum depth increased for Node I-60
  WARNING 02: maximum depth increased for Node I-63
  WARNING 02: maximum depth increased for Node I-64
  WARNING 02: maximum depth increased for Node I-65
  WARNING 02: maximum depth increased for Node I-66
  WARNING 02: maximum depth increased for Node I-68
  WARNING 02: maximum depth increased for Node I-72
  WARNING 02: maximum depth increased for Node I-74
  WARNING 02: maximum depth increased for Node I-75
  WARNING 02: maximum depth increased for Node I-77
  WARNING 02: maximum depth increased for Node I-78
  WARNING 02: maximum depth increased for Node I-79
  WARNING 02: maximum depth increased for Node I-82
  WARNING 02: maximum depth increased for Node I-90
  WARNING 02: maximum depth increased for Node I-91
  WARNING 02: maximum depth increased for Node I-96
  WARNING 02: maximum depth increased for Node I-104
  WARNING 02: maximum depth increased for Node I-106
  WARNING 02: maximum depth increased for Node I-108
  WARNING 02: maximum depth increased for Node I-113
  WARNING 02: maximum depth increased for Node I-117
  WARNING 02: maximum depth increased for Node I-125
  WARNING 02: maximum depth increased for Node I-126
  WARNING 02: maximum depth increased for Node I-128
  WARNING 02: maximum depth increased for Node I-136
  WARNING 02: maximum depth increased for Node I-137
  WARNING 02: maximum depth increased for Node I-139
  WARNING 02: maximum depth increased for Node I-140
  WARNING 02: maximum depth increased for Node ISD-1
  WARNING 02: maximum depth increased for Node ISD-2
  WARNING 02: maximum depth increased for Node ISD-3
  WARNING 02: maximum depth increased for Node ISD-4
  WARNING 02: maximum depth increased for Node ISD-5
  WARNING 02: maximum depth increased for Node ISD-6
  WARNING 02: maximum depth increased for Node ISD-7
  WARNING 02: maximum depth increased for Node ISD-8
  WARNING 02: maximum depth increased for Node ISD-9
  WARNING 02: maximum depth increased for Node ISD-10
  WARNING 02: maximum depth increased for Node ISD-11
  WARNING 02: maximum depth increased for Node ISD-12
  WARNING 02: maximum depth increased for Node ISD-13
  WARNING 02: maximum depth increased for Node ISD-14
  WARNING 02: maximum depth increased for Node ISD-15
  WARNING 02: maximum depth increased for Node ISD-16
  WARNING 02: maximum depth increased for Node ISD-17
  WARNING 02: maximum depth increased for Node ISD-18
  WARNING 02: maximum depth increased for Node ISD-19
  WARNING 02: maximum depth increased for Node ISD-20
  WARNING 02: maximum depth increased for Node ISD-21
  WARNING 02: maximum depth increased for Node ISD-22
  WARNING 02: maximum depth increased for Node ISD-23
  WARNING 02: maximum depth increased for Node ISD-24
  WARNING 02: maximum depth increased for Node ISD-25
  WARNING 02: maximum depth increased for Node ISD-26
  WARNING 02: maximum depth increased for Node ISD-27
  WARNING 02: maximum depth increased for Node ISD-28
  WARNING 02: maximum depth increased for Node ISD-29
  WARNING 02: maximum depth increased for Node ISD-30
  WARNING 02: maximum depth increased for Node ISD-31
  WARNING 02: maximum depth increased for Node ISD-32
  WARNING 02: maximum depth increased for Node ISD-33
  WARNING 02: maximum depth increased for Node ISD-34
  WARNING 02: maximum depth increased for Node ISD-35
  WARNING 02: maximum depth increased for Node ISD-36
  WARNING 02: maximum depth increased for Node ISD-37
  WARNING 02: maximum depth increased for Node ISD-38
  WARNING 02: maximum depth increased for Node ISD-39
  WARNING 02: maximum depth increased for Node ISD-40
  WARNING 02: maximum depth increased for Node ISD-41
  WARNING 02: maximum depth increased for Node ISD-42
  WARNING 02: maximum depth increased for Node ISD-43
  WARNING 02: maximum depth increased for Node ISD-44
  WARNING 02: maximum depth increased for Node ISD-45
  WARNING 02: maximum depth increased for Node ISD-46
  WARNING 02: maximum depth increased for Node ISD-47
  WARNING 02: maximum depth increased for Node ISD-48
  WARNING 02: maximum depth increased for Node ISD-49
  WARNING 02: maximum depth increased for Node ISD-50
  WARNING 02: maximum depth increased for Node ISD-51
  WARNING 02: maximum depth increased for Node ISD-52
  WARNING 02: maximum depth increased for Node ISD-53
  WARNING 02: maximum depth increased for Node ISD-54
  WARNING 02: maximum depth increased for Node ISD-55
  WARNING 02: maximum depth increased for Node ISD-56
  WARNING 02: maximum depth increased for Node ISD-57
  WARNING 02: maximum depth increased for Node ISD-58
  WARNING 02: maximum depth increased for Node ISD-59
  WARNING 02: maximum depth increased for Node ISD-60
  WARNING 02: maximum depth increased for Node ISD-61
  WARNING 02: maximum depth increased for Node ISD-62
  WARNING 02: maximum depth increased for Node ISD-63
  WARNING 02: maximum depth increased for Node ISD-64
  WARNING 02: maximum depth increased for Node ISD-65
  WARNING 02: maximum depth increased for Node ISD-66
  WARNING 02: maximum depth increased for Node ISD-67
  WARNING 02: maximum depth increased for Node ISD-68
  WARNING 02: maximum depth increased for Node ISD-273
  WARNING 02: maximum depth increased for Node ISD-274
  WARNING 02: maximum depth increased for Node ISD-275
  WARNING 02: maximum depth increased for Node ISD-276
  WARNING 02: maximum depth increased for Node ISD-277
  WARNING 02: maximum depth increased for Node ISD-278
  WARNING 02: maximum depth increased for Node ISD-279
  WARNING 02: maximum depth increased for Node ISD-280
  WARNING 02: maximum depth increased for Node ISD-281
  WARNING 02: maximum depth increased for Node ISD-282
  WARNING 02: maximum depth increased for Node ISD-283
  WARNING 02: maximum depth increased for Node ISD-285
  WARNING 02: maximum depth increased for Node ISD-286
  WARNING 02: maximum depth increased for Node ISD-287
  WARNING 02: maximum depth increased for Node ISD-288
  WARNING 02: maximum depth increased for Node ISD-289
  WARNING 02: maximum depth increased for Node ISD-290
  WARNING 02: maximum depth increased for Node ISD-291
  WARNING 02: maximum depth increased for Node ISD-292
  WARNING 02: maximum depth increased for Node ISD-293
  WARNING 02: maximum depth increased for Node ISD-294
  WARNING 02: maximum depth increased for Node ISD-295
  WARNING 02: maximum depth increased for Node ISD-296
  WARNING 02: maximum depth increased for Node ISD-297
  WARNING 02: maximum depth increased for Node ISD-298
  WARNING 02: maximum depth increased for Node ISD-299
  WARNING 02: maximum depth increased for Node ISD-300
  WARNING 02: maximum depth increased for Node ISD-301
  WARNING 02: maximum depth increased for Node ISD-302
  WARNING 02: maximum depth increased for Node ISD-303
  WARNING 02: maximum depth increased for Node ISD-304
  WARNING 02: maximum depth increased for Node ISD-305
  WARNING 02: maximum depth increased for Node ISD-306
  WARNING 02: maximum depth increased for Node ISD-307
  WARNING 02: maximum depth increased for Node ISD-308
  WARNING 02: maximum depth increased for Node ISD-309
  WARNING 02: maximum depth increased for Node ISD-310
  WARNING 02: maximum depth increased for Node ISD-311
  WARNING 02: maximum depth increased for Node ISD-312
  WARNING 02: maximum depth increased for Node ISD-313
  WARNING 02: maximum depth increased for Node ISD-314
  WARNING 02: maximum depth increased for Node ISD-315
  WARNING 02: maximum depth increased for Node ISD-316
  WARNING 02: maximum depth increased for Node ISD-317
  WARNING 02: maximum depth increased for Node ISD-318
  WARNING 02: maximum depth increased for Node ISD-319
  WARNING 02: maximum depth increased for Node ISD-320
  WARNING 02: maximum depth increased for Node ISD-321
  WARNING 02: maximum depth increased for Node ISD-322
  WARNING 02: maximum depth increased for Node ISD-323
  WARNING 02: maximum depth increased for Node ISD-324
  WARNING 02: maximum depth increased for Node ISD-325
  WARNING 02: maximum depth increased for Node ISD-326
  WARNING 02: maximum depth increased for Node ISD-327
  WARNING 02: maximum depth increased for Node ISD-328
  WARNING 02: maximum depth increased for Node ISD-329
  WARNING 02: maximum depth increased for Node ISD-330
  WARNING 02: maximum depth increased for Node ISD-331
  WARNING 02: maximum depth increased for Node ISD-332
  WARNING 02: maximum depth increased for Node ISD-333
  WARNING 02: maximum depth increased for Node ISD-334
  WARNING 02: maximum depth increased for Node ISD-335
  WARNING 02: maximum depth increased for Node ISD-336
  WARNING 02: maximum depth increased for Node ISD-337
  WARNING 02: maximum depth increased for Node ISD-338
  WARNING 02: maximum depth increased for Node ISD-339
  WARNING 02: maximum depth increased for Node ISD-340
  WARNING 02: maximum depth increased for Node ISD-341
  WARNING 02: maximum depth increased for Node ISD-342
  WARNING 02: maximum depth increased for Node ISD-343
  WARNING 02: maximum depth increased for Node ISD-344
  WARNING 02: maximum depth increased for Node ISD-345
  WARNING 02: maximum depth increased for Node ISD-346
  WARNING 02: maximum depth increased for Node ISD-347
  WARNING 02: maximum depth increased for Node ISD-348
  WARNING 02: maximum depth increased for Node ISD-349
  WARNING 02: maximum depth increased for Node ISD-350
  WARNING 02: maximum depth increased for Node ISD-351
  WARNING 02: maximum depth increased for Node ISD-352
  WARNING 02: maximum depth increased for Node ISD-353
  WARNING 02: maximum depth increased for Node ISD-354
  WARNING 02: maximum depth increased for Node ISD-355
  WARNING 02: maximum depth increased for Node ISD-356
  WARNING 02: maximum depth increased for Node ISD-357
  WARNING 02: maximum depth increased for Node ISD-358
  WARNING 02: maximum depth increased for Node ISD-1089
  WARNING 02: maximum depth increased for Node ISD-1090
  WARNING 02: maximum depth increased for Node ISD-1091
  WARNING 02: maximum depth increased for Node ISD-1092
  WARNING 02: maximum depth increased for Node ISD-1093
  WARNING 02: maximum depth increased for Node ISD-1094
  WARNING 02: maximum depth increased for Node ISD-1095
  WARNING 02: maximum depth increased for Node ISD-1096
  WARNING 02: maximum depth increased for Node ISD-1097
  WARNING 02: maximum depth increased for Node ISD-1098
  WARNING 02: maximum depth increased for Node ISD-1099
  WARNING 02: maximum depth increased for Node ISD-1100
  WARNING 02: maximum depth increased for Node ISD-1101
  WARNING 02: maximum depth increased for Node ISD-1102
  WARNING 02: maximum depth increased for Node ISD-1103
  WARNING 02: maximum depth increased for Node ISD-1104
  WARNING 02: maximum depth increased for Node ISD-1105
  WARNING 02: maximum depth increased for Node ISD-1106
  WARNING 02: maximum depth increased for Node ISD-1107
  WARNING 02: maximum depth increased for Node ISD-1108
  WARNING 02: maximum depth increased for Node ISD-1109
  WARNING 02: maximum depth increased for Node ISD-1110
  WARNING 02: maximum depth increased for Node ISD-1111
  WARNING 02: maximum depth increased for Node ISD-1112
  WARNING 02: maximum depth increased for Node ISD-1113
  WARNING 02: maximum depth increased for Node ISD-1114
  WARNING 02: maximum depth increased for Node ISD-1115
  WARNING 02: maximum depth increased for Node ISD-1116
  WARNING 02: maximum depth increased for Node ISD-1117
  WARNING 02: maximum depth increased for Node ISD-1118
  WARNING 02: maximum depth increased for Node ISD-1119
  WARNING 02: maximum depth increased for Node ISD-1120
  WARNING 02: maximum depth increased for Node ISD-1121
  WARNING 02: maximum depth increased for Node ISD-1122
  WARNING 02: maximum depth increased for Node ISD-1123
  WARNING 02: maximum depth increased for Node ISD-1124
  WARNING 02: maximum depth increased for Node ISD-1125
  WARNING 02: maximum depth increased for Node ISD-1126
  WARNING 02: maximum depth increased for Node ISD-1127
  WARNING 02: maximum depth increased for Node ISD-1128
  WARNING 02: maximum depth increased for Node ISD-1129
  WARNING 02: maximum depth increased for Node ISD-1130
  WARNING 02: maximum depth increased for Node ISD-1131
  WARNING 02: maximum depth increased for Node ISD-1132
  WARNING 02: maximum depth increased for Node ISD-1133
  WARNING 02: maximum depth increased for Node ISD-1134
  WARNING 02: maximum depth increased for Node ISD-1135
  WARNING 02: maximum depth increased for Node ISD-1136
  WARNING 02: maximum depth increased for Node ISD-1137
  WARNING 02: maximum depth increased for Node ISD-1138
  
  ****************
  Analysis Options
  ****************
  Flow Units ............... CMS
  Process Models:
    Rainfall/Runoff ........ YES
    RDII ................... NO
    Snowmelt ............... NO
    Groundwater ............ NO
    Flow Routing ........... YES
    Ponding Allowed ........ YES
    Water Quality .......... NO
  Infiltration Method ...... HORTON
  Flow Routing Method ...... DYNWAVE
  Surcharge Method ......... EXTRAN
  Starting Date ............ 01/01/2024 00:00:00
  Ending Date .............. 01/02/2024 00:00:00
  Antecedent Dry Days ...... 0.0
  Report Time Step ......... 00:15:00
  Wet Time Step ............ 00:05:00
  Dry Time Step ............ 01:00:00
  Routing Time Step ........ 10.00 sec
  Variable Time Step ....... YES
  Maximum Trials ........... 8
  Number of Threads ........ 1
  Head Tolerance ........... 0.001500 m
  
  
  **************************        Volume         Depth
  Runoff Quantity Continuity     hectare-m            mm
  **************************     ---------       -------
  Total Precipitation ......       108.292       139.999
  Evaporation Loss .........         0.000         0.000
  Infiltration Loss ........        35.149        45.440
  Surface Runoff ...........        73.093        94.493
  Final Storage ............         0.394         0.509
  Continuity Error (%) .....        -0.316
  
  
  **************************        Volume        Volume
  Flow Routing Continuity        hectare-m      10^6 ltr
  **************************     ---------     ---------
  Dry Weather Inflow .......         0.000         0.000
  Wet Weather Inflow .......        73.087       730.882
  Groundwater Inflow .......         0.000         0.000
  RDII Inflow ..............         0.000         0.000
  External Inflow ..........         0.000         0.000
  External Outflow .........        23.120       231.205
  Flooding Loss ............        49.533       495.336
  Evaporation Loss .........         0.000         0.000
  Exfiltration Loss ........         0.000         0.000
  Initial Stored Volume ....         0.019         0.188
  Final Stored Volume ......         0.515         5.149
  Continuity Error (%) .....        -0.085
  
  
  *************************
  Highest Continuity Errors
  *************************
  Node I-2 (-40.13%)
  Node I-30 (14.84%)
  Node I-1 (-11.22%)
  Node I-114 (4.42%)
  Node I-36 (4.31%)
  
  
  ***************************
  Time-Step Critical Elements
  ***************************
  Link C_155-C-140 (47.42%)
  Link C_476-C-28 (10.34%)
  Link C_100-C-106 (6.90%)
  Link C_863-C-32 (3.23%)
  Link C_1298-C-35 (1.97%)
  
  
  ********************************
  Highest Flow Instability Indexes
  ********************************
  Link C_992-C-2 (67)
  Link C_629-C-7 (56)
  Link C_633-C-7 (56)
  Link C_631-C-7 (54)
  Link C_5-C-97 (53)
  
  
  *********************************
  Most Frequent Nonconverging Nodes
  *********************************
  Node O-0 (35.96%)
  Node O-1 (35.96%)
  Node O-2 (35.96%)
  Node O-3 (35.96%)
  Node O-4 (35.96%)
  
  
  *************************
  Routing Time Step Summary
  *************************
  Minimum Time Step           :     0.46 sec
  Average Time Step           :     1.88 sec
  Maximum Time Step           :    10.00 sec
  % of Time in Steady State   :     0.00
  Average Iterations per Step :     5.06
  % of Steps Not Converging   :    35.96
  Time Step Frequencies       :
     10.000 -  5.493 sec      :     2.64 %
      5.493 -  3.017 sec      :    15.03 %
      3.017 -  1.657 sec      :    35.36 %
      1.657 -  0.910 sec      :     6.84 %
      0.910 -  0.500 sec      :    40.13 %
  
  
  ***************************
  Subcatchment Runoff Summary
  ***************************
  
  ------------------------------------------------------------------------------------------------------------------------------
                            Total      Total      Total      Total     Imperv       Perv      Total       Total     Peak  Runoff
                           Precip      Runon       Evap      Infil     Runoff     Runoff     Runoff      Runoff   Runoff   Coeff
  Subcatchment                 mm         mm         mm         mm         mm         mm         mm    10^6 ltr      CMS
  ------------------------------------------------------------------------------------------------------------------------------
  SC_I-0                   140.00       0.00       0.00      70.94       0.00      69.27      69.27        2.03     0.66   0.495
  SC_I-1                   140.00       0.00       0.00      76.75       0.00      63.41      63.41        2.71     0.78   0.453
  SC_I-2                   140.00       0.00       0.00      32.75      60.71      46.33     107.03        3.16     1.14   0.765
  SC_I-3                   140.00       0.00       0.00      81.02       0.00      59.10      59.10        1.96     0.52   0.422
  SC_I-4                   140.00       0.00       0.00      26.88      69.62      43.26     112.88        2.54     0.99   0.806
  SC_I-5                   140.00       0.00       0.00      55.13      48.70      35.94      84.64        8.37     2.75   0.605
  SC_I-6                   140.00       0.00       0.00      52.69      48.44      38.68      87.12        5.47     1.83   0.622
  SC_I-7                   140.00       0.00       0.00      46.11      48.76      45.03      93.79        1.87     0.67   0.670
  SC_I-8                   140.00       0.00       0.00      36.98      48.80      54.32     103.13        0.62     0.27   0.737
  SC_I-9                   140.00       0.00       0.00      52.05      48.72      39.03      87.76        4.67     1.57   0.627
  SC_I-10                  140.00       0.00       0.00      78.31       0.00      61.84      61.84        2.06     0.57   0.442
  SC_I-11                  140.00       0.00       0.00      84.28       0.00      55.83      55.83        3.37     0.83   0.399
  SC_I-12                  140.00       0.00       0.00      79.94       0.00      60.19      60.19        3.29     0.88   0.430
  SC_I-13                  140.00       0.00       0.00      54.31      48.71      36.76      85.47        6.50     2.15   0.611
  SC_I-14                  140.00       0.00       0.00      54.35      48.71      36.72      85.43        5.95     1.97   0.610
  SC_I-15                  140.00       0.00       0.00      53.46      48.71      37.62      86.33        5.48     1.83   0.617
  SC_I-16                  140.00       0.00       0.00      37.91      48.80      53.36     102.16        0.31     0.13   0.730
  SC_I-17                  140.00       0.00       0.00      75.91       0.00      64.25      64.25        0.81     0.24   0.459
  SC_I-20                  140.00       0.00       0.00      47.34      48.75      43.78      92.53        2.78     0.98   0.661
  SC_I-21                  140.00       0.00       0.00      88.45       0.00      51.63      51.63        3.10     0.70   0.369
  SC_I-22                  140.00       0.00       0.00      86.53       0.00      53.57      53.57        2.51     0.59   0.383
  SC_I-23                  140.00       0.00       0.00      50.38      48.73      40.72      89.45        3.88     1.32   0.639
  SC_I-24                  140.00       0.00       0.00      44.76      48.77      46.39      95.15        1.65     0.60   0.680
  SC_I-26                  140.00       0.00       0.00      51.08      48.73      40.01      88.74        5.39     1.83   0.634
  SC_I-27                  140.00       0.00       0.00      29.06      69.59      41.05     110.64        2.63     0.98   0.790
  SC_I-28                  140.00       0.00       0.00      39.09      48.79      52.16     100.95        0.35     0.14   0.721
  SC_I-29                  140.00       0.00       0.00      27.45      69.48      42.82     112.29        2.98     1.15   0.802
  SC_I-30                  140.00       0.00       0.00      25.32      69.65      44.84     114.49        1.19     0.49   0.818
  SC_I-31                  140.00       0.00       0.00      25.09      69.65      45.08     114.73        1.28     0.52   0.819
  SC_I-32                  140.00       0.00       0.00      20.51      69.71      49.81     119.52        0.20     0.10   0.854
  SC_I-33                  140.00       0.00       0.00      28.19      69.60      41.93     111.53        3.45     1.31   0.797
  SC_I-34                  140.00       0.00       0.00      61.47      31.77      46.72      78.48        6.40     1.91   0.561
  SC_I-35                  140.00       0.00       0.00      48.70      48.74      42.41      91.15        2.41     0.84   0.651
  SC_I-36                  140.00       0.00       0.00      33.44      62.36      43.94     106.30        7.10     2.52   0.759
  SC_I-37                  140.00       0.00       0.00      24.90      69.65      45.27     114.93        1.34     0.55   0.821
  SC_I-38                  140.00       0.00       0.00      49.66      48.74      41.45      90.19        3.99     1.37   0.644
  SC_I-39                  140.00       0.00       0.00      44.09      48.77      47.07      95.84        1.34     0.49   0.685
  SC_I-40                  140.00       0.00       0.00      30.14      68.88      40.65     109.54        4.33     1.59   0.782
  SC_I-41                  140.00       0.00       0.00      29.54      69.58      40.56     110.14        4.62     1.71   0.787
  SC_I-42                  140.00       0.00       0.00      23.69      69.67      46.51     116.18        0.72     0.31   0.830
  SC_I-43                  140.00       0.00       0.00      29.14      69.59      40.97     110.55        3.74     1.39   0.790
  SC_I-44                  140.00       0.00       0.00      47.45      48.75      43.67      92.42        2.96     1.04   0.660
  SC_I-45                  140.00       0.00       0.00      48.30      48.75      42.81      91.56        1.73     0.60   0.654
  SC_I-46                  140.00       0.00       0.00      19.09      69.73      51.30     121.04        0.15     0.08   0.865
  SC_I-47                  140.00       0.00       0.00      28.76      69.59      41.35     110.94        3.96     1.48   0.792
  SC_I-48                  140.00       0.00       0.00      23.14      69.68      47.08     116.76        0.89     0.39   0.834
  SC_I-49                  140.00       0.00       0.00      29.66      69.58      40.44     110.02        5.41     1.99   0.786
  SC_I-50                  140.00       0.00       0.00      54.85      48.70      36.22      84.92        6.23     2.05   0.607
  SC_I-51                  140.00       0.00       0.00      23.61      69.67      46.59     116.27        0.56     0.24   0.830
  SC_I-52                  140.00       0.00       0.00      29.66      69.58      40.44     110.02        4.28     1.57   0.786
  SC_I-53                  140.00       0.00       0.00      25.78      69.64      44.37     114.01        1.37     0.55   0.814
  SC_I-54                  140.00       0.00       0.00      54.67      48.71      36.40      85.10        8.12     2.68   0.608
  SC_I-55                  140.00       0.00       0.00      26.28      69.63      43.87     113.50        1.87     0.74   0.811
  SC_I-56                  140.00       0.00       0.00      29.11      70.28      40.29     110.57        3.91     1.45   0.790
  SC_I-57                  140.00       0.00       0.00      28.74      69.59      41.37     110.97        3.73     1.40   0.793
  SC_I-58                  140.00       0.00       0.00      27.50      69.06      43.19     112.25        2.45     0.94   0.802
  SC_I-59                  140.00       0.00       0.00      26.84      69.62      43.29     112.92        1.96     0.76   0.807
  SC_I-60                  140.00       0.00       0.00      68.96      19.38      51.69      71.07        2.08     0.56   0.508
  SC_I-61                  140.00       0.00       0.00      80.25       0.00      59.89      59.89        2.16     0.58   0.428
  SC_I-63                  140.00       0.00       0.00      27.80      69.61      42.32     111.93        2.82     1.08   0.800
  SC_I-64                  140.00       0.00       0.00      25.47      69.64      44.69     114.34        1.21     0.49   0.817
  SC_I-65                  140.00       0.00       0.00      82.21       0.00      57.91      57.91        1.84     0.47   0.414
  SC_I-66                  140.00       0.00       0.00      37.19      48.80      54.10     102.90        0.44     0.19   0.735
  SC_I-67                  140.00       0.00       0.00      28.14      69.60      41.98     111.58        3.06     1.16   0.797
  SC_I-68                  140.00       0.00       0.00      24.13      69.66      46.06     115.72        0.81     0.34   0.827
  SC_I-69                  140.00       0.00       0.00      25.05      79.29      35.24     114.53        4.76     1.81   0.818
  SC_I-71                  140.00       0.00       0.00      75.92       0.00      64.25      64.25        1.62     0.47   0.459
  SC_I-72                  140.00       0.00       0.00      26.70      69.63      43.44     113.06        1.46     0.57   0.808
  SC_I-73                  140.00       0.00       0.00      24.84      69.65      45.34     114.99        1.09     0.45   0.821
  SC_I-74                  140.00       0.00       0.00      25.95      69.64      44.20     113.84        1.30     0.52   0.813
  SC_I-75                  140.00       0.00       0.00      22.91      83.45      33.18     116.63        5.00     1.93   0.833
  SC_I-76                  140.00       0.00       0.00      26.35      69.08      44.36     113.44        1.17     0.47   0.810
  SC_I-77                  140.00       0.00       0.00      26.97      69.62      43.16     112.79        2.26     0.88   0.806
  SC_I-78                  140.00       0.00       0.00      83.64       0.00      56.47      56.47        1.21     0.30   0.403
  SC_I-79                  140.00       0.00       0.00      49.14      48.74      41.97      90.71        2.48     0.86   0.648
  SC_I-80                  140.00       0.00       0.00      42.90      48.78      48.28      97.05        1.07     0.40   0.693
  SC_I-81                  140.00       0.00       0.00      82.43       0.00      57.69      57.69        4.89     1.25   0.412
  SC_I-82                  140.00       0.00       0.00      29.26      73.71      36.62     110.33        6.27     2.26   0.788
  SC_I-83                  140.00       0.00       0.00      86.61       0.00      53.48      53.48        5.41     1.27   0.382
  SC_I-84                  140.00       0.00       0.00      47.46      48.75      43.67      92.42        1.39     0.49   0.660
  SC_I-85                  140.00       0.00       0.00      85.07       0.00      55.03      55.03        1.65     0.40   0.393
  SC_I-86                  140.00       0.00       0.00      49.93      48.74      41.17      89.91        2.11     0.73   0.642
  SC_I-87                  140.00       0.00       0.00      46.23      48.76      44.91      93.67        2.61     0.93   0.669
  SC_I-88                  140.00       0.00       0.00      53.10      48.72      37.98      86.69        4.87     1.63   0.619
  SC_I-89                  140.00       0.00       0.00      41.57      48.78      49.63      98.41        0.46     0.18   0.703
  SC_I-90                  140.00       0.00       0.00      49.37      48.74      41.74      90.48        2.51     0.87   0.646
  SC_I-91                  140.00       0.00       0.00      52.49      48.72      38.59      87.31        3.86     1.30   0.624
  SC_I-92                  140.00       0.00       0.00      53.38      48.71      37.70      86.42        5.33     1.78   0.617
  SC_I-93                  140.00       0.00       0.00      54.21      48.71      36.86      85.57        5.32     1.76   0.611
  SC_I-94                  140.00       0.00       0.00      51.56      48.73      39.53      88.26        3.55     1.20   0.630
  SC_I-95                  140.00       0.00       0.00      49.67      48.74      41.43      90.17        2.48     0.85   0.644
  SC_I-96                  140.00       0.00       0.00      54.41      48.71      36.67      85.37        6.46     2.14   0.610
  SC_I-97                  140.00       0.00       0.00      52.87      48.72      38.21      86.93        4.48     1.50   0.621
  SC_I-98                  140.00       0.00       0.00      62.20       4.76      73.33      78.09        0.25     0.09   0.558
  SC_I-99                  140.00       0.00       0.00      52.71      48.72      38.38      87.09        4.51     1.51   0.622
  SC_I-100                 140.00       0.00       0.00      35.70      53.67      50.67     104.34        0.99     0.42   0.745
  SC_I-101                 140.00       0.00       0.00      50.21      48.73      40.89      89.62        2.69     0.92   0.640
  SC_I-102                 140.00       0.00       0.00      53.70      46.91      39.20      86.11        5.75     1.91   0.615
  SC_I-103                 140.00       0.00       0.00      57.87      30.80      51.33      82.13        3.98     1.24   0.587
  SC_I-104                 140.00       0.00       0.00      47.06      48.75      44.06      92.82        1.87     0.66   0.663
  SC_I-105                 140.00       0.00       0.00      39.77      48.79      51.46     100.25        0.36     0.15   0.716
  SC_I-106                 140.00       0.00       0.00      48.62      48.74      42.49      91.24        4.37     1.52   0.652
  SC_I-107                 140.00       0.00       0.00      88.64       0.00      51.44      51.44        2.07     0.47   0.367
  SC_I-108                 140.00       0.00       0.00      43.17      48.77      48.01      96.78        1.48     0.56   0.691
  SC_I-109                 140.00       0.00       0.00      69.35       0.00      70.88      70.88        1.06     0.36   0.506
  SC_I-110                 140.00       0.00       0.00      54.26      48.71      36.81      85.52        5.83     1.93   0.611
  SC_I-111                 140.00       0.00       0.00      36.48      48.80      54.83     103.64        0.25     0.11   0.740
  SC_I-112                 140.00       0.00       0.00      39.15      48.79      52.09     100.88        0.75     0.31   0.721
  SC_I-113                 140.00       0.00       0.00      38.83      48.79      52.42     101.22        0.69     0.28   0.723
  SC_I-114                 140.00       0.00       0.00      88.97       0.00      51.11      51.11        2.62     0.59   0.365
  SC_I-115                 140.00       0.00       0.00      45.17      48.76      45.97      94.74        1.37     0.50   0.677
  SC_I-117                 140.00       0.00       0.00      24.84      72.00      42.93     114.93        2.90     1.17   0.821
  SC_I-118                 140.00       0.00       0.00      24.29      69.66      45.89     115.55        0.89     0.38   0.825
  SC_I-119                 140.00       0.00       0.00      49.30      48.74      41.81      90.55        5.88     2.03   0.647
  SC_I-120                 140.00       0.00       0.00      24.50      69.66      45.69     115.34        0.99     0.42   0.824
  SC_I-121                 140.00       0.00       0.00      15.62      83.37      40.96     124.33        0.11     0.06   0.888
  SC_I-122                 140.00       0.00       0.00      50.25      48.73      40.84      89.58        1.16     0.40   0.640
  SC_I-123                 140.00       0.00       0.00      64.99       0.00      75.30      75.30        0.59     0.22   0.538
  SC_I-124                 140.00       0.00       0.00      27.13      69.62      43.01     112.63        1.79     0.69   0.804
  SC_I-125                 140.00       0.00       0.00      27.22      69.62      42.91     112.53        2.20     0.85   0.804
  SC_I-126                 140.00       0.00       0.00      69.08      15.06      55.93      70.99        1.42     0.40   0.507
  SC_I-127                 140.00       0.00       0.00      51.24      48.73      39.86      88.59        4.30     1.46   0.633
  SC_I-128                 140.00       0.00       0.00      66.59      14.64      58.87      73.51        1.15     0.34   0.525
  SC_I-129                 140.00       0.00       0.00      62.52       0.00      77.81      77.81        0.45     0.18   0.556
  SC_I-130                 140.00       0.00       0.00       0.00     139.07       0.00     139.07        5.08     2.26   0.993
  SC_I-131                 140.00       0.00       0.00      36.32      56.25      47.23     103.47        3.03     1.04   0.739
  SC_I-132                 140.00       0.00       0.00      32.53      65.40      41.76     107.16        6.46     2.30   0.765
  SC_I-133                 140.00       0.00       0.00      41.64      48.78      49.56      98.34        0.84     0.32   0.702
  SC_I-134                 140.00       0.00       0.00      67.21       0.00      73.05      73.05        0.51     0.18   0.522
  SC_I-135                 140.00       0.00       0.00      35.13      48.81      56.23     105.04        0.13     0.06   0.750
  SC_I-136                 140.00       0.00       0.00      54.30      48.71      36.78      85.48        4.86     1.61   0.611
  SC_I-137                 140.00       0.00       0.00      87.05       0.00      53.05      53.05        2.03     0.47   0.379
  SC_I-138                 140.00       0.00       0.00      42.56      48.78      48.62      97.40        0.93     0.35   0.696
  SC_I-139                 140.00       0.00       0.00      44.69      48.77      46.46      95.22        1.10     0.40   0.680
  SC_I-140                 140.00       0.00       0.00      27.65      70.30      41.77     112.07        3.96     1.51   0.800
  SC_I-141                 140.00       0.00       0.00      90.77       0.00      49.31      49.31        2.70     0.59   0.352
  SC_I-142                 140.00       0.00       0.00      26.91      69.62      43.22     112.85        1.05     0.41   0.806
  SC_I-143                 140.00       0.00       0.00      23.17      69.68      47.04     116.72        0.74     0.32   0.834
  SC_ISD-1                 140.00       0.00       0.00      20.68      69.71      49.62     119.33        0.21     0.10   0.852
  SC_ISD-2                 140.00       0.00       0.00      21.17      69.70      49.11     118.82        0.26     0.12   0.849
  SC_ISD-3                 140.00       0.00       0.00      21.38      69.70      48.90     118.60        0.26     0.12   0.847
  SC_ISD-4                 140.00       0.00       0.00      21.11      69.71      49.18     118.88        0.21     0.10   0.849
  SC_ISD-5                 140.00       0.00       0.00      21.72      69.70      48.55     118.24        0.26     0.12   0.845
  SC_ISD-6                 140.00       0.00       0.00      21.74      69.70      48.53     118.23        0.25     0.12   0.844
  SC_ISD-7                 140.00       0.00       0.00      21.26      69.70      49.02     118.72        0.18     0.09   0.848
  SC_ISD-8                 140.00       0.00       0.00      22.05      69.69      48.20     117.90        0.26     0.12   0.842
  SC_ISD-9                 140.00       0.00       0.00      22.14      69.69      48.11     117.80        0.26     0.12   0.841
  SC_ISD-10                140.00       0.00       0.00      21.53      69.70      48.74     118.44        0.19     0.09   0.846
  SC_ISD-11                140.00       0.00       0.00      21.69      69.70      48.58     118.27        0.21     0.09   0.845
  SC_ISD-12                140.00       0.00       0.00      21.14      69.71      49.15     118.85        0.16     0.08   0.849
  SC_ISD-13                140.00       0.00       0.00      21.12      69.71      49.17     118.88        0.16     0.08   0.849
  SC_ISD-14                140.00       0.00       0.00      21.54      69.70      48.73     118.43        0.20     0.09   0.846
  SC_ISD-15                140.00       0.00       0.00      21.99      69.69      48.27     117.96        0.25     0.11   0.843
  SC_ISD-16                140.00       0.00       0.00      22.02      69.69      48.23     117.92        0.24     0.11   0.842
  SC_ISD-17                140.00       0.00       0.00      21.49      69.70      48.78     118.48        0.19     0.09   0.846
  SC_ISD-18                140.00       0.00       0.00      21.20      69.70      49.08     118.79        0.17     0.08   0.848
  SC_ISD-19                140.00       0.00       0.00      21.08      69.71      49.21     118.92        0.15     0.07   0.849
  SC_ISD-20                140.00       0.00       0.00      21.71      69.70      48.55     118.25        0.15     0.07   0.845
  SC_ISD-21                140.00       0.00       0.00      21.29      69.70      48.99     118.69        0.17     0.08   0.848
  SC_ISD-22                140.00       0.00       0.00      22.22      69.69      48.02     117.71        0.26     0.12   0.841
  SC_ISD-23                140.00       0.00       0.00      21.85      69.70      48.41     118.11        0.21     0.10   0.844
  SC_ISD-24                140.00       0.00       0.00      21.17      69.70      49.12     118.82        0.16     0.07   0.849
  SC_ISD-25                140.00       0.00       0.00      21.20      69.70      49.08     118.79        0.16     0.07   0.848
  SC_ISD-26                140.00       0.00       0.00      21.18      69.70      49.10     118.81        0.16     0.08   0.849
  SC_ISD-27                140.00       0.00       0.00      22.09      69.69      48.16     117.85        0.26     0.12   0.842
  SC_ISD-28                140.00       0.00       0.00      21.67      69.70      48.59     118.29        0.22     0.10   0.845
  SC_ISD-29                140.00       0.00       0.00      20.41      69.71      49.92     119.63        0.11     0.05   0.855
  SC_ISD-30                140.00       0.00       0.00      20.73      69.71      49.58     119.29        0.11     0.05   0.852
  SC_ISD-31                140.00       0.00       0.00      20.74      69.71      49.57     119.28        0.12     0.06   0.852
  SC_ISD-32                140.00       0.00       0.00      20.97      69.71      49.32     119.03        0.15     0.07   0.850
  SC_ISD-33                140.00       0.00       0.00      21.00      69.71      49.29     118.99        0.16     0.08   0.850
  SC_ISD-34                140.00       0.00       0.00      20.69      69.71      49.62     119.33        0.13     0.06   0.852
  SC_ISD-35                140.00       0.00       0.00      21.22      69.70      49.07     118.77        0.15     0.07   0.848
  SC_ISD-36                140.00       0.00       0.00      21.57      69.70      48.70     118.40        0.17     0.08   0.846
  SC_ISD-37                140.00       0.00       0.00      21.01      69.71      49.28     118.99        0.13     0.06   0.850
  SC_ISD-38                140.00       0.00       0.00      21.53      69.70      48.74     118.44        0.17     0.08   0.846
  SC_ISD-39                140.00       0.00       0.00      20.87      69.71      49.43     119.14        0.12     0.06   0.851
  SC_ISD-40                140.00       0.00       0.00      21.48      69.70      48.79     118.49        0.16     0.07   0.846
  SC_ISD-41                140.00       0.00       0.00      20.86      69.71      49.44     119.15        0.14     0.07   0.851
  SC_ISD-42                140.00       0.00       0.00      20.88      69.71      49.42     119.12        0.16     0.08   0.851
  SC_ISD-43                140.00       0.00       0.00      20.66      69.71      49.65     119.36        0.15     0.07   0.853
  SC_ISD-44                140.00       0.00       0.00      20.24      69.72      50.08     119.80        0.13     0.06   0.856
  SC_ISD-45                140.00       0.00       0.00      20.75      69.71      49.55     119.26        0.18     0.08   0.852
  SC_ISD-46                140.00       0.00       0.00      20.48      69.71      49.83     119.55        0.16     0.08   0.854
  SC_ISD-47                140.00       0.00       0.00      20.28      69.72      50.05     119.76        0.13     0.07   0.855
  SC_ISD-48                140.00       0.00       0.00      21.76      69.70      48.50     118.20        0.28     0.13   0.844
  SC_ISD-49                140.00       0.00       0.00      21.76      69.70      48.51     118.20        0.28     0.13   0.844
  SC_ISD-50                140.00       0.00       0.00      21.14      69.71      49.15     118.85        0.17     0.08   0.849
  SC_ISD-51                140.00       0.00       0.00      21.31      69.70      48.97     118.67        0.22     0.10   0.848
  SC_ISD-52                140.00       0.00       0.00      21.25      69.70      49.03     118.73        0.21     0.10   0.848
  SC_ISD-53                140.00       0.00       0.00      20.85      69.71      49.45     119.16        0.15     0.07   0.851
  SC_ISD-54                140.00       0.00       0.00      20.80      69.71      49.50     119.21        0.14     0.07   0.852
  SC_ISD-55                140.00       0.00       0.00      21.07      69.71      49.22     118.93        0.15     0.07   0.850
  SC_ISD-56                140.00       0.00       0.00      21.30      69.70      48.98     118.68        0.15     0.07   0.848
  SC_ISD-57                140.00       0.00       0.00      20.73      69.71      49.58     119.29        0.15     0.07   0.852
  SC_ISD-58                140.00       0.00       0.00      21.26      69.70      49.02     118.72        0.21     0.10   0.848
  SC_ISD-59                140.00       0.00       0.00      21.13      69.71      49.16     118.86        0.22     0.10   0.849
  SC_ISD-60                140.00       0.00       0.00      20.08      69.72      50.26     119.98        0.15     0.07   0.857
  SC_ISD-61                140.00       0.00       0.00      19.98      69.72      50.36     120.08        0.15     0.08   0.858
  SC_ISD-62                140.00       0.00       0.00      19.89      69.58      50.60     120.18        0.16     0.08   0.858
  SC_ISD-63                140.00       0.00       0.00      19.63      69.72      50.73     120.46        0.14     0.07   0.860
  SC_ISD-64                140.00       0.00       0.00      19.73      69.72      50.62     120.35        0.15     0.08   0.860
  SC_ISD-65                140.00       0.00       0.00      24.29      68.69      46.89     115.58        0.80     0.34   0.826
  SC_ISD-66                140.00       0.00       0.00      71.92       0.00      68.28      68.28        0.81     0.26   0.488
  SC_ISD-67                140.00       0.00       0.00      38.83      48.79      52.42     101.22        0.79     0.33   0.723
  SC_ISD-68                140.00       0.00       0.00      35.03      48.81      56.33     105.14        0.39     0.18   0.751
  SC_ISD-69                140.00       0.00       0.00      42.01      48.78      49.18      97.96        0.65     0.25   0.700
  SC_ISD-70                140.00       0.00       0.00      34.32      48.81      57.07     105.88        0.34     0.16   0.756
  SC_ISD-71                140.00       0.00       0.00      35.66      48.81      55.68     104.49        0.39     0.17   0.746
  SC_ISD-72                140.00       0.00       0.00      35.25      48.81      56.11     104.92        0.32     0.14   0.749
  SC_ISD-73                140.00       0.00       0.00      35.73      48.81      55.61     104.42        0.28     0.13   0.746
  SC_ISD-74                140.00       0.00       0.00      35.64      48.81      55.70     104.51        0.22     0.10   0.747
  SC_ISD-75                140.00       0.00       0.00      35.84      48.81      55.49     104.30        0.20     0.09   0.745
  SC_ISD-76                140.00       0.00       0.00      35.84      48.81      55.49     104.30        0.18     0.08   0.745
  SC_ISD-77                140.00       0.00       0.00      36.85      48.80      54.45     103.25        0.22     0.10   0.738
  SC_ISD-78                140.00       0.00       0.00      37.18      48.80      54.11     102.91        0.22     0.09   0.735
  SC_ISD-79                140.00       0.00       0.00      35.97      48.81      55.36     104.17        0.14     0.06   0.744
  SC_ISD-80                140.00       0.00       0.00      36.28      48.81      55.03     103.84        0.16     0.07   0.742
  SC_ISD-81                140.00       0.00       0.00      36.24      48.81      55.08     103.88        0.17     0.07   0.742
  SC_ISD-82                140.00       0.00       0.00      35.56      48.81      55.78     104.59        0.13     0.06   0.747
  SC_ISD-83                140.00       0.00       0.00      34.86      48.81      56.51     105.32        0.12     0.06   0.752
  SC_ISD-84                140.00       0.00       0.00      34.99      48.81      56.37     105.18        0.12     0.06   0.751
  SC_ISD-85                140.00       0.00       0.00      35.34      48.81      56.01     104.82        0.14     0.07   0.749
  SC_ISD-86                140.00       0.00       0.00      36.07      48.81      55.26     104.07        0.15     0.07   0.743
  SC_ISD-87                140.00       0.00       0.00      37.71      48.80      53.57     102.37        0.14     0.06   0.731
  SC_ISD-88                140.00       0.00       0.00      35.57      48.81      55.77     104.58        0.14     0.06   0.747
  SC_ISD-89                140.00       0.00       0.00      36.33      48.81      54.98     103.79        0.13     0.06   0.741
  SC_ISD-90                140.00       0.00       0.00      35.38      48.81      55.98     104.79        0.19     0.09   0.748
  SC_ISD-91                140.00       0.00       0.00      35.21      48.81      56.14     104.96        0.20     0.09   0.750
  SC_ISD-92                140.00       0.00       0.00      34.12      48.82      57.28     106.09        0.15     0.07   0.758
  SC_ISD-93                140.00       0.00       0.00      33.74      48.82      57.67     106.49        0.13     0.06   0.761
  SC_ISD-94                140.00       0.00       0.00      33.64      48.82      57.78     106.60        0.14     0.07   0.761
  SC_ISD-95                140.00       0.00       0.00      33.79      48.82      57.62     106.44        0.15     0.07   0.760
  SC_ISD-96                140.00       0.00       0.00      33.61      48.82      57.81     106.63        0.14     0.07   0.762
  SC_ISD-97                140.00       0.00       0.00      33.60      48.82      57.82     106.64        0.14     0.07   0.762
  SC_ISD-98                140.00       0.00       0.00      33.59      48.82      57.83     106.65        0.14     0.07   0.762
  SC_ISD-99                140.00       0.00       0.00      33.82      48.82      57.59     106.40        0.15     0.07   0.760
  SC_ISD-100               140.00       0.00       0.00      33.87      48.82      57.53     106.35        0.15     0.07   0.760
  SC_ISD-101               140.00       0.00       0.00      34.97      48.81      56.39     105.21        0.21     0.10   0.751
  SC_ISD-102               140.00       0.00       0.00      34.92      48.81      56.44     105.26        0.20     0.09   0.752
  SC_ISD-103               140.00       0.00       0.00      33.84      48.82      57.56     106.38        0.14     0.07   0.760
  SC_ISD-104               140.00       0.00       0.00      34.00      48.82      57.40     106.21        0.14     0.07   0.759
  SC_ISD-105               140.00       0.00       0.00      34.18      48.82      57.21     106.02        0.15     0.07   0.757
  SC_ISD-106               140.00       0.00       0.00      35.58      48.81      55.76     104.57        0.22     0.10   0.747
  SC_ISD-107               140.00       0.00       0.00      35.86      48.81      55.47     104.28        0.21     0.10   0.745
  SC_ISD-108               140.00       0.00       0.00      58.21       0.00      82.21      82.21        0.11     0.05   0.587
  SC_ISD-109               140.00       0.00       0.00      86.76       0.00      53.34      53.34        2.84     0.67   0.381
  SC_ISD-110               140.00       0.00       0.00      42.49      35.29      62.44      97.72        0.17     0.07   0.698
  SC_ISD-111               140.00       0.00       0.00      48.23      21.63      70.45      92.08        0.15     0.06   0.658
  SC_ISD-112               140.00       0.00       0.00      35.69      50.34      54.08     104.42        0.18     0.08   0.746
  SC_ISD-113               140.00       0.00       0.00      24.37      59.40      56.32     115.72        0.15     0.07   0.827
  SC_ISD-114               140.00       0.00       0.00      22.80      64.69      52.55     117.24        0.17     0.08   0.837
  SC_ISD-115               140.00       0.00       0.00      22.04      68.17      49.77     117.94        0.20     0.09   0.842
  SC_ISD-116               140.00       0.00       0.00      21.58      69.42      48.97     118.40        0.19     0.09   0.846
  SC_ISD-117               140.00       0.00       0.00      22.11      69.83      48.00     117.83        0.24     0.11   0.842
  SC_ISD-118               140.00       0.00       0.00      22.10      69.97      47.87     117.84        0.24     0.11   0.842
  SC_ISD-119               140.00       0.00       0.00      21.82      69.83      48.29     118.13        0.21     0.10   0.844
  SC_ISD-120               140.00       0.00       0.00      21.80      69.70      48.46     118.15        0.20     0.09   0.844
  SC_ISD-121               140.00       0.00       0.00      22.38      69.69      47.86     117.55        0.25     0.11   0.840
  SC_ISD-122               140.00       0.00       0.00      22.39      69.69      47.85     117.54        0.25     0.11   0.840
  SC_ISD-123               140.00       0.00       0.00      21.74      69.70      48.53     118.23        0.19     0.09   0.844
  SC_ISD-124               140.00       0.00       0.00      21.83      69.70      48.43     118.12        0.20     0.09   0.844
  SC_ISD-125               140.00       0.00       0.00      21.43      69.70      48.84     118.54        0.17     0.08   0.847
  SC_ISD-126               140.00       0.00       0.00      21.32      69.70      48.96     118.66        0.16     0.07   0.848
  SC_ISD-127               140.00       0.00       0.00      21.75      69.70      48.52     118.22        0.20     0.09   0.844
  SC_ISD-128               140.00       0.00       0.00      22.69      69.68      47.54     117.22        0.30     0.13   0.837
  SC_ISD-129               140.00       0.00       0.00      22.36      69.69      47.88     117.57        0.26     0.12   0.840
  SC_ISD-130               140.00       0.00       0.00      21.39      69.70      48.89     118.59        0.16     0.07   0.847
  SC_ISD-131               140.00       0.00       0.00      21.78      69.70      48.48     118.18        0.19     0.09   0.844
  SC_ISD-132               140.00       0.00       0.00      21.76      69.70      48.50     118.20        0.19     0.09   0.844
  SC_ISD-133               140.00       0.00       0.00      21.91      69.69      48.34     118.04        0.19     0.09   0.843
  SC_ISD-134               140.00       0.00       0.00      21.66      69.70      48.61     118.31        0.17     0.08   0.845
  SC_ISD-135               140.00       0.00       0.00      21.60      69.70      48.67     118.37        0.17     0.08   0.846
  SC_ISD-136               140.00       0.00       0.00      21.87      69.70      48.39     118.08        0.19     0.09   0.843
  SC_ISD-137               140.00       0.00       0.00      21.96      69.69      48.30     117.99        0.20     0.09   0.843
  SC_ISD-138               140.00       0.00       0.00      21.98      69.69      48.27     117.97        0.20     0.09   0.843
  SC_ISD-139               140.00       0.00       0.00      21.34      69.70      48.94     118.64        0.15     0.07   0.847
  SC_ISD-140               140.00       0.00       0.00      21.18      69.70      49.11     118.81        0.15     0.07   0.849
  SC_ISD-141               140.00       0.00       0.00      21.74      69.70      48.52     118.22        0.20     0.09   0.844
  SC_ISD-142               140.00       0.00       0.00      22.22      69.69      48.03     117.72        0.26     0.12   0.841
  SC_ISD-143               140.00       0.00       0.00      22.13      69.69      48.12     117.82        0.25     0.11   0.842
  SC_ISD-144               140.00       0.00       0.00      21.63      69.70      48.64     118.34        0.21     0.10   0.845
  SC_ISD-145               140.00       0.00       0.00      21.55      69.70      48.72     118.42        0.20     0.09   0.846
  SC_ISD-146               140.00       0.00       0.00      21.47      69.70      48.81     118.51        0.20     0.09   0.846
  SC_ISD-147               140.00       0.00       0.00      21.97      69.69      48.28     117.97        0.26     0.12   0.843
  SC_ISD-148               140.00       0.00       0.00      21.97      69.69      48.28     117.98        0.27     0.12   0.843
  SC_ISD-149               140.00       0.00       0.00      21.26      69.70      49.03     118.73        0.19     0.09   0.848
  SC_ISD-150               140.00       0.00       0.00      21.29      69.70      48.99     118.70        0.20     0.09   0.848
  SC_ISD-151               140.00       0.00       0.00      23.49      69.67      46.71     116.39        0.50     0.22   0.831
  SC_ISD-152               140.00       0.00       0.00      44.46      48.77      46.70      95.47        0.76     0.28   0.682
  SC_ISD-153               140.00       0.00       0.00      41.31      48.78      49.89      98.68        0.55     0.21   0.705
  SC_ISD-154               140.00       0.00       0.00      37.27      48.80      54.02     102.82        0.24     0.10   0.734
  SC_ISD-155               140.00       0.00       0.00       0.00     139.30       0.00     139.30        0.35     0.18   0.995
  SC_ISD-156               140.00       0.00       0.00       0.76     134.58       4.04     138.62        0.30     0.15   0.990
  SC_ISD-157               140.00       0.00       0.00       3.34     120.52      15.68     136.20        0.30     0.15   0.973
  SC_ISD-158               140.00       0.00       0.00       6.16     107.16      26.36     133.51        0.33     0.17   0.954
  SC_ISD-159               140.00       0.00       0.00       4.25     115.93      19.42     135.35        0.30     0.15   0.967
  SC_ISD-160               140.00       0.00       0.00      17.32      80.29      42.31     122.60        0.19     0.10   0.876
  SC_ISD-161               140.00       0.00       0.00      18.55      76.26      45.16     121.42        0.17     0.08   0.867
  SC_ISD-162               140.00       0.00       0.00      20.25      73.46      46.23     119.69        0.24     0.11   0.855
  SC_ISD-163               140.00       0.00       0.00      21.27      71.50      47.16     118.67        0.26     0.12   0.848
  SC_ISD-164               140.00       0.00       0.00      20.78      70.13      49.10     119.22        0.15     0.07   0.852
  SC_ISD-165               140.00       0.00       0.00      20.87      70.40      48.71     119.11        0.17     0.08   0.851
  SC_ISD-166               140.00       0.00       0.00      21.43      69.84      48.71     118.55        0.20     0.09   0.847
  SC_ISD-167               140.00       0.00       0.00      21.40      69.70      48.87     118.57        0.19     0.09   0.847
  SC_ISD-168               140.00       0.00       0.00      23.94      69.67      46.25     115.92        0.51     0.21   0.828
  SC_ISD-169               140.00       0.00       0.00      24.49      69.66      45.69     115.35        0.58     0.24   0.824
  SC_ISD-170               140.00       0.00       0.00      22.38      69.69      47.86     117.55        0.30     0.14   0.840
  SC_ISD-171               140.00       0.00       0.00      21.49      69.70      48.78     118.48        0.25     0.12   0.846
  SC_ISD-172               140.00       0.00       0.00      21.44      69.70      48.83     118.53        0.21     0.10   0.847
  SC_ISD-173               140.00       0.00       0.00      21.39      69.70      48.88     118.59        0.20     0.09   0.847
  SC_ISD-174               140.00       0.00       0.00      21.31      69.70      48.97     118.67        0.19     0.09   0.848
  SC_ISD-175               140.00       0.00       0.00      22.57      69.69      47.67     117.35        0.35     0.16   0.838
  SC_ISD-176               140.00       0.00       0.00      22.60      69.69      47.63     117.32        0.35     0.15   0.838
  SC_ISD-177               140.00       0.00       0.00      21.54      69.70      48.73     118.43        0.21     0.10   0.846
  SC_ISD-178               140.00       0.00       0.00      21.34      69.70      48.94     118.64        0.22     0.10   0.847
  SC_ISD-179               140.00       0.00       0.00      21.42      69.70      48.86     118.56        0.20     0.09   0.847
  SC_ISD-180               140.00       0.00       0.00      21.23      69.70      49.06     118.76        0.19     0.09   0.848
  SC_ISD-181               140.00       0.00       0.00      21.73      69.70      48.53     118.23        0.25     0.12   0.844
  SC_ISD-182               140.00       0.00       0.00      21.65      69.70      48.61     118.31        0.25     0.12   0.845
  SC_ISD-183               140.00       0.00       0.00      21.10      69.71      49.19     118.89        0.19     0.09   0.849
  SC_ISD-184               140.00       0.00       0.00      22.06      69.69      48.19     117.89        0.30     0.14   0.842
  SC_ISD-185               140.00       0.00       0.00      22.07      69.69      48.18     117.87        0.30     0.14   0.842
  SC_ISD-186               140.00       0.00       0.00      21.18      69.70      49.10     118.81        0.20     0.10   0.849
  SC_ISD-187               140.00       0.00       0.00      21.26      69.70      49.02     118.73        0.22     0.10   0.848
  SC_ISD-188               140.00       0.00       0.00      21.74      69.70      48.52     118.22        0.31     0.14   0.844
  SC_ISD-189               140.00       0.00       0.00      21.50      69.70      48.77     118.47        0.31     0.15   0.846
  SC_ISD-190               140.00       0.00       0.00      20.60      69.71      49.71     119.42        0.23     0.11   0.853
  SC_ISD-191               140.00       0.00       0.00      20.77      69.71      49.53     119.24        0.25     0.12   0.852
  SC_ISD-192               140.00       0.00       0.00      21.36      69.70      48.92     118.62        0.33     0.15   0.847
  SC_ISD-193               140.00       0.00       0.00      21.92      69.69      48.34     118.03        0.40     0.18   0.843
  SC_ISD-194               140.00       0.00       0.00      21.14      69.71      49.15     118.85        0.28     0.13   0.849
  SC_ISD-195               140.00       0.00       0.00      21.46      69.70      48.81     118.51        0.31     0.14   0.847
  SC_ISD-196               140.00       0.00       0.00      22.16      69.69      48.09     117.78        0.40     0.18   0.841
  SC_ISD-197               140.00       0.00       0.00      21.80      69.70      48.46     118.16        0.29     0.13   0.844
  SC_ISD-198               140.00       0.00       0.00      22.04      69.69      48.21     117.90        0.26     0.12   0.842
  SC_ISD-199               140.00       0.00       0.00      24.09      69.66      46.10     115.76        0.48     0.20   0.827
  SC_ISD-200               140.00       0.00       0.00      23.91      69.67      46.28     115.95        0.44     0.19   0.828
  SC_ISD-201               140.00       0.00       0.00      21.58      69.70      48.69     118.39        0.17     0.08   0.846
  SC_ISD-202               140.00       0.00       0.00      21.37      69.70      48.91     118.61        0.16     0.08   0.847
  SC_ISD-203               140.00       0.00       0.00      21.54      69.70      48.73     118.43        0.18     0.09   0.846
  SC_ISD-204               140.00       0.00       0.00      21.76      69.70      48.50     118.20        0.21     0.10   0.844
  SC_ISD-205               140.00       0.00       0.00      21.72      69.70      48.54     118.24        0.20     0.09   0.845
  SC_ISD-206               140.00       0.00       0.00      21.18      69.70      49.11     118.81        0.16     0.07   0.849
  SC_ISD-207               140.00       0.00       0.00      21.08      69.71      49.21     118.92        0.15     0.07   0.849
  SC_ISD-208               140.00       0.00       0.00      21.44      69.70      48.84     118.54        0.17     0.08   0.847
  SC_ISD-209               140.00       0.00       0.00      21.85      69.70      48.40     118.10        0.21     0.10   0.844
  SC_ISD-210               140.00       0.00       0.00      21.69      69.70      48.57     118.27        0.18     0.09   0.845
  SC_ISD-211               140.00       0.00       0.00      21.34      69.70      48.94     118.64        0.15     0.07   0.847
  SC_ISD-212               140.00       0.00       0.00      21.86      69.70      48.40     118.09        0.19     0.08   0.844
  SC_ISD-213               140.00       0.00       0.00      22.55      69.69      47.69     117.37        0.24     0.11   0.838
  SC_ISD-215               140.00       0.00       0.00      20.97      69.71      49.33     119.04        0.33     0.15   0.850
  SC_ISD-216               140.00       0.00       0.00      20.58      69.71      49.73     119.44        0.31     0.15   0.853
  SC_ISD-217               140.00       0.00       0.00      19.92      69.72      50.42     120.14        0.20     0.10   0.858
  SC_ISD-218               140.00       0.00       0.00      20.57      69.71      49.74     119.45        0.25     0.12   0.853
  SC_ISD-219               140.00       0.00       0.00      21.81      69.70      48.45     118.14        0.35     0.16   0.844
  SC_ISD-220               140.00       0.00       0.00      22.14      69.69      48.11     117.80        0.36     0.16   0.841
  SC_ISD-221               140.00       0.00       0.00      21.92      69.69      48.34     118.03        0.30     0.14   0.843
  SC_ISD-222               140.00       0.00       0.00      21.48      69.70      48.79     118.49        0.22     0.10   0.846
  SC_ISD-223               140.00       0.00       0.00      20.69      69.71      49.62     119.33        0.16     0.07   0.852
  SC_ISD-224               140.00       0.00       0.00      20.38      69.72      49.94     119.65        0.14     0.07   0.855
  SC_ISD-225               140.00       0.00       0.00      20.64      69.71      49.67     119.38        0.16     0.07   0.853
  SC_ISD-226               140.00       0.00       0.00      21.81      69.70      48.45     118.15        0.30     0.14   0.844
  SC_ISD-227               140.00       0.00       0.00      22.16      69.69      48.09     117.78        0.32     0.15   0.841
  SC_ISD-228               140.00       0.00       0.00      21.24      69.70      49.05     118.75        0.20     0.09   0.848
  SC_ISD-229               140.00       0.00       0.00      20.52      69.71      49.80     119.51        0.14     0.07   0.854
  SC_ISD-230               140.00       0.00       0.00      21.43      69.70      48.84     118.54        0.22     0.10   0.847
  SC_ISD-231               140.00       0.00       0.00      21.46      69.70      48.81     118.51        0.23     0.11   0.847
  SC_ISD-232               140.00       0.00       0.00      21.59      69.70      48.68     118.37        0.24     0.11   0.846
  SC_ISD-233               140.00       0.00       0.00      20.88      69.71      49.42     119.13        0.15     0.07   0.851
  SC_ISD-234               140.00       0.00       0.00      22.07      69.69      48.18     117.87        0.29     0.13   0.842
  SC_ISD-235               140.00       0.00       0.00      22.22      69.69      48.03     117.72        0.30     0.14   0.841
  SC_ISD-236               140.00       0.00       0.00      21.85      69.70      48.41     118.11        0.24     0.11   0.844
  SC_ISD-237               140.00       0.00       0.00      22.06      69.69      48.19     117.88        0.24     0.11   0.842
  SC_ISD-238               140.00       0.00       0.00      20.92      69.71      49.38     119.09        0.15     0.07   0.851
  SC_ISD-239               140.00       0.00       0.00      22.88      69.68      47.35     117.03        0.31     0.14   0.836
  SC_ISD-240               140.00       0.00       0.00      22.69      69.68      47.54     117.23        0.30     0.13   0.837
  SC_ISD-241               140.00       0.00       0.00      22.27      69.69      47.98     117.67        0.29     0.13   0.840
  SC_ISD-242               140.00       0.00       0.00      22.11      69.69      48.14     117.83        0.30     0.14   0.842
  SC_ISD-243               140.00       0.00       0.00      22.03      69.69      48.22     117.91        0.26     0.12   0.842
  SC_ISD-244               140.00       0.00       0.00      21.79      69.70      48.47     118.16        0.20     0.09   0.844
  SC_ISD-245               140.00       0.00       0.00      22.78      69.68      47.45     117.13        0.32     0.14   0.837
  SC_ISD-246               140.00       0.00       0.00      21.80      69.70      48.46     118.16        0.26     0.12   0.844
  SC_ISD-247               140.00       0.00       0.00      22.91      69.68      47.31     117.00        0.48     0.21   0.836
  SC_ISD-248               140.00       0.00       0.00      21.10      69.71      49.19     118.89        0.22     0.10   0.849
  SC_ISD-249               140.00       0.00       0.00      22.16      69.69      48.09     117.78        0.37     0.17   0.841
  SC_ISD-250               140.00       0.00       0.00      20.72      69.71      49.58     119.29        0.18     0.08   0.852
  SC_ISD-251               140.00       0.00       0.00      21.27      69.70      49.01     118.72        0.23     0.11   0.848
  SC_ISD-252               140.00       0.00       0.00      22.36      69.69      47.88     117.57        0.36     0.16   0.840
  SC_ISD-253               140.00       0.00       0.00      24.22      70.22      45.40     115.62        0.65     0.27   0.826
  SC_ISD-254               140.00       0.00       0.00      21.69      72.19      46.01     118.20        0.31     0.14   0.844
  SC_ISD-255               140.00       0.00       0.00      23.83      69.94      46.09     116.03        0.52     0.22   0.829
  SC_ISD-256               140.00       0.00       0.00      25.67      66.46      47.73     114.20        0.61     0.25   0.816
  SC_ISD-257               140.00       0.00       0.00      53.35      29.70      57.02      86.72        0.56     0.19   0.619
  SC_ISD-258               140.00       0.00       0.00      41.68      48.78      49.52      98.30        0.62     0.24   0.702
  SC_ISD-259               140.00       0.00       0.00      40.94      48.78      50.27      99.05        0.59     0.23   0.708
  SC_ISD-260               140.00       0.00       0.00      40.21      48.79      51.02      99.81        0.52     0.21   0.713
  SC_ISD-261               140.00       0.00       0.00      37.79      48.80      53.49     102.29        0.28     0.12   0.731
  SC_ISD-262               140.00       0.00       0.00      35.50      48.81      55.84     104.65        0.14     0.07   0.747
  SC_ISD-263               140.00       0.00       0.00      34.11      48.82      57.29     106.10        0.09     0.04   0.758
  SC_ISD-264               140.00       0.00       0.00      35.64      48.81      55.70     104.51        0.14     0.06   0.747
  SC_ISD-265               140.00       0.00       0.00      41.56      48.78      49.63      98.42        0.59     0.23   0.703
  SC_ISD-266               140.00       0.00       0.00      41.97      48.78      49.22      98.00        0.59     0.23   0.700
  SC_ISD-267               140.00       0.00       0.00      43.92      48.77      47.24      96.01        0.91     0.34   0.686
  SC_ISD-268               140.00       0.00       0.00      45.90      48.76      45.24      94.00        1.39     0.50   0.671
  SC_ISD-269               140.00       0.00       0.00      43.61      48.77      47.55      96.33        0.95     0.36   0.688
  SC_ISD-270               140.00       0.00       0.00      39.16      48.79      52.08     100.87        0.35     0.14   0.721
  SC_ISD-271               140.00       0.00       0.00      40.17      48.79      51.05      99.84        0.41     0.16   0.713
  SC_ISD-272               140.00       0.00       0.00      40.44      48.79      50.78      99.57        0.34     0.13   0.711
  SC_ISD-273               140.00       0.00       0.00      20.61      68.74      50.70     119.44        0.14     0.07   0.853
  SC_ISD-274               140.00       0.00       0.00      20.93      66.66      52.51     119.16        0.11     0.05   0.851
  SC_ISD-275               140.00       0.00       0.00      24.16      59.68      56.25     115.92        0.15     0.07   0.828
  SC_ISD-276               140.00       0.00       0.00      36.30      47.00      56.86     103.86        0.13     0.06   0.742
  SC_ISD-277               140.00       0.00       0.00      44.92      29.30      66.05      95.34        0.13     0.05   0.681
  SC_ISD-278               140.00       0.00       0.00      57.16       5.32      77.91      83.23        0.11     0.05   0.594
  SC_ISD-279               140.00       0.00       0.00      60.12       0.00      80.26      80.26        0.11     0.05   0.573
  SC_ISD-280               140.00       0.00       0.00      60.03       0.00      80.35      80.35        0.11     0.04   0.574
  SC_ISD-281               140.00       0.00       0.00      35.98      48.81      55.35     104.16        0.13     0.06   0.744
  SC_ISD-282               140.00       0.00       0.00      36.33      48.81      54.98     103.79        0.14     0.06   0.741
  SC_ISD-283               140.00       0.00       0.00      35.53      48.81      55.81     104.62        0.11     0.05   0.747
  SC_ISD-285               140.00       0.00       0.00      37.75      48.80      53.53     102.32        0.22     0.09   0.731
  SC_ISD-286               140.00       0.00       0.00      37.81      48.80      53.47     102.27        0.24     0.10   0.731
  SC_ISD-287               140.00       0.00       0.00      37.84      48.80      53.43     102.23        0.23     0.10   0.730
  SC_ISD-288               140.00       0.00       0.00      35.93      48.81      55.40     104.21        0.14     0.06   0.744
  SC_ISD-289               140.00       0.00       0.00      35.54      48.81      55.80     104.61        0.13     0.06   0.747
  SC_ISD-290               140.00       0.00       0.00      35.72      48.81      55.62     104.43        0.14     0.06   0.746
  SC_ISD-291               140.00       0.00       0.00      36.15      48.81      55.18     103.99        0.15     0.07   0.743
  SC_ISD-292               140.00       0.00       0.00      35.83      48.81      55.51     104.31        0.14     0.06   0.745
  SC_ISD-293               140.00       0.00       0.00      35.79      48.81      55.54     104.35        0.13     0.06   0.745
  SC_ISD-294               140.00       0.00       0.00      37.44      48.80      53.84     102.64        0.20     0.08   0.733
  SC_ISD-295               140.00       0.00       0.00      38.25      48.80      53.01     101.81        0.23     0.10   0.727
  SC_ISD-296               140.00       0.00       0.00      37.94      48.80      53.33     102.13        0.21     0.09   0.729
  SC_ISD-297               140.00       0.00       0.00      37.86      48.80      53.42     102.22        0.22     0.09   0.730
  SC_ISD-298               140.00       0.00       0.00      36.40      48.81      54.91     103.72        0.16     0.07   0.741
  SC_ISD-299               140.00       0.00       0.00      35.87      48.81      55.46     104.27        0.14     0.06   0.745
  SC_ISD-300               140.00       0.00       0.00      35.63      48.81      55.71     104.51        0.13     0.06   0.747
  SC_ISD-301               140.00       0.00       0.00      35.63      48.81      55.71     104.52        0.13     0.06   0.747
  SC_ISD-302               140.00       0.00       0.00      36.37      48.81      54.95     103.75        0.17     0.08   0.741
  SC_ISD-303               140.00       0.00       0.00      35.38      48.81      55.96     104.77        0.14     0.06   0.748
  SC_ISD-304               140.00       0.00       0.00      35.98      48.81      55.35     104.16        0.18     0.08   0.744
  SC_ISD-305               140.00       0.00       0.00      34.92      48.81      56.45     105.26        0.13     0.06   0.752
  SC_ISD-306               140.00       0.00       0.00      35.34      48.81      56.01     104.82        0.16     0.07   0.749
  SC_ISD-307               140.00       0.00       0.00      33.43      48.82      57.99     106.81        0.09     0.04   0.763
  SC_ISD-308               140.00       0.00       0.00      35.84      48.81      55.49     104.30        0.17     0.08   0.745
  SC_ISD-309               140.00       0.00       0.00      36.61      48.80      54.70     103.51        0.22     0.10   0.739
  SC_ISD-310               140.00       0.00       0.00      35.95      48.81      55.38     104.19        0.17     0.08   0.744
  SC_ISD-311               140.00       0.00       0.00      36.18      48.81      55.14     103.95        0.18     0.08   0.743
  SC_ISD-312               140.00       0.00       0.00      36.21      48.81      55.11     103.92        0.18     0.08   0.742
  SC_ISD-313               140.00       0.00       0.00      36.09      48.81      55.23     104.04        0.17     0.08   0.743
  SC_ISD-314               140.00       0.00       0.00      36.03      48.81      55.29     104.10        0.17     0.07   0.744
  SC_ISD-315               140.00       0.00       0.00      35.98      48.81      55.35     104.16        0.16     0.07   0.744
[...]
  C_1089-C-112                1.25      1.25      1.27      0.01         0.01
  C_1090-C-112                1.27      1.27      1.27      0.33         0.20
  C_1091-C-112                1.27      1.27      1.29      0.05         0.01
  C_1092-C-112                1.28      1.29      1.28      1.41         1.28
  C_1093-C-112                1.27      1.28      1.28      1.25         1.16
  C_1094-C-112                1.28      1.28      1.30      0.01         0.01
  C_1095-C-112                1.30      1.30      1.32      0.01         0.01
  C_1096-C-112                1.31      1.32      1.31      1.36         1.30
  C_1097-C-112                1.31      1.31      1.33      0.01         0.02
  C_1098-C-112                1.33      1.33      1.34      1.28         1.22
  C_1099-C-112                1.34      1.34      1.36      0.01         0.01
  C_1100-C-112                1.36      1.36      1.37      0.06         0.09
  C_1101-C-112                1.37      1.37      1.43      0.07         0.02
  C_1102-C-112                1.43      1.43      1.50      0.07         0.02
  C_1103-C-112                1.49      1.50      1.81      1.22         1.18
  C_1104-C-112                1.81      1.81      1.85      0.01         0.01
  C_1105-C-112                1.85      1.85      1.88      0.03         0.01
  C_1106-C-112                1.88      1.88      1.91      1.26         1.23
  C_1107-C-112                1.91      1.91      1.95      0.01         0.01
  C_1108-C-112                1.95      1.95      1.97      1.23         1.19
  C_1109-C-112                1.97      1.97      2.00      0.01         0.01
  C_1110-C-112                2.00      2.00      2.02      0.82         0.67
  C_1111-C-112                2.02      2.02      2.06      0.02         0.01
  C_1112-C-112                2.06      2.06      2.08      0.07         0.02
  C_1113-C-112                2.06      2.08      2.06      2.22         2.06
  C_1114-C-112                2.05      2.06      2.05      2.21         2.05
  C_1115-C-112                2.05      2.05      2.13      0.01         0.01
  C_1116-C-112                2.12      2.13      2.13      1.14         0.90
  C_1117-C-112                2.12      2.13      2.12      2.23         2.12
  C_1118-C-112                2.12      2.12      2.15      0.05         0.10
  C_1119-C-112                2.15      2.15      2.15      1.41         0.93
  C_1120-C-112                2.15      2.15      2.16      1.93         1.39
  C_1121-C-112                2.16      2.16      2.17      2.01         1.83
  C_1122-C-112                2.17      2.17      2.20      0.01         0.01
  C_1123-C-112                2.20      2.20      2.20      0.64         0.48
  C_1124-C-112                2.20      2.20      2.20      1.81         1.57
  C_1125-C-112                2.20      2.20      2.21      2.10         1.69
  C_1126-C-112                2.20      2.21      2.22      0.88         0.80
  C_1127-C-112                2.22      2.22      2.22      1.42         1.19
  C_1128-C-112                2.21      2.22      2.21      2.37         2.21
  C_1129-C-112                2.20      2.21      2.22      1.10         1.03
  C_1130-C-112                2.19      2.22      2.19      2.35         2.19
  C_1131-C-112                2.16      2.19      2.16      3.19         2.16
  C_1132-C-112                2.16      2.16      2.25      0.01         0.01
  C_1133-C-112                2.26      2.26      2.27      1.66         1.45
  C_1134-C-112                2.27      2.27      2.28      1.95         1.79
  C_1135-C-112                2.25      2.25      2.26      1.54         1.40
  C_1136-C-112                2.26      2.28      2.26      3.18         2.26
  C_1137-C-112                2.26      2.26      2.28      2.14         2.04
  C_1138-C-112                2.25      2.28      2.25      3.23         2.25
  C_1139-C-112                1.95      1.95      2.25      0.01         0.01
  C_1140-C-112                1.79      1.95      1.79      3.26         1.79
  C_1141-C-112                1.25      1.79      1.25      3.23         1.25
  C_1142-C-112                1.25      1.25      1.55      0.77         0.72
  C_1143-C-112                0.69      0.69      1.55      2.28         0.01
  C_1144-C-112                0.01      0.69      0.01      3.23         0.01
  C_1145-C-140                0.01      0.80      0.01      0.94         0.01
  C_1146-C-140                0.80      0.90      0.80      2.13         0.80
  C_1147-C-140                0.90      0.95      0.90      2.02         0.90
  C_1148-C-140                0.95      0.95      0.95      0.93         0.93
  C_1149-C-140                0.91      0.91      0.95      0.80         0.81
  C_1150-C-140                0.88      0.88      0.91      0.44         0.37
  C_1151-C-140                0.87      0.87      0.88      0.58         0.51
  C_1152-C-140                0.86      0.86      0.87      0.07         0.06
  C_1153-C-140                0.84      0.84      0.86      0.01         0.01
  C_1154-C-140                0.81      0.81      0.84      0.01         0.01
  C_1155-C-140                0.79      0.79      0.81      0.01         0.01
  C_1156-C-140                0.76      0.76      0.79      0.01         0.01
  C_1157-C-140                0.69      0.69      0.76      0.01         0.01
  C_1158-C-140                0.66      0.66      0.69      0.01         0.01
  C_1159-C-140                0.60      0.60      0.63      0.01         0.01
  C_1160-C-140                0.63      0.63      0.66      0.14         0.11
  C_1161-C-140                0.56      0.56      0.60      0.01         0.01
  C_1162-C-140                0.48      0.48      0.56      0.01         0.01
  C_1163-C-140                0.42      0.42      0.48      0.01         0.01
  C_1164-C-140                0.26      0.26      0.42      0.01         0.01
  C_1167-C-91                 0.28      0.29      0.29      0.32         0.28
  C_1168-C-91                 0.28      0.28      0.29      0.32         0.28
  C_1169-C-91                 0.26      0.26      0.28      0.23         0.23
  C_1170-C-91                 0.24      0.24      0.26      0.01         0.01
  C_1171-C-91                 0.20      0.20      0.24      0.01         0.01
  C_1172-C-91                 0.16      0.16      0.20      0.01         0.01
  C_1173-C-91                 0.01      0.01      0.16      0.01         0.01
  C_1185-C-91                 0.01      0.01      0.09      0.01         0.01
  C_1186-C-91                 0.09      0.09      0.15      0.01         0.01
  C_1187-C-91                 0.15      0.15      0.22      0.01         0.01
  C_1188-C-91                 0.22      0.22      0.54      0.01         0.01
  C_1189-C-91                 0.54      0.54      0.60      0.01         0.01
  C_1190-C-91                 0.60      0.60      0.66      0.01         0.01
  C_1191-C-91                 0.66      0.66      0.70      0.01         0.01
  C_1192-C-91                 0.70      0.70      0.75      0.01         0.01
  C_1193-C-91                 0.75      0.75      0.82      0.01         0.01
  C_1194-C-91                 0.79      0.82      0.79      0.89         0.79
  C_1195-C-91                 0.01      0.79      0.01      0.84         0.01
  C_1197-C-29                 1.17      1.28      1.17      1.95         0.80
  C_1198-C-29                 1.27      1.27      1.28      0.34         0.24
  C_1199-C-29                 1.25      1.25      1.27      0.01         0.01
  C_1200-C-29                 1.24      1.24      1.25      0.77         0.75
  C_1201-C-29                 1.23      1.23      1.24      1.20         1.18
  C_1202-C-29                 1.22      1.22      1.23      0.01         0.06
  C_1203-C-29                 1.21      1.21      1.22      1.13         0.93
  C_1204-C-29                 1.20      1.20      1.21      0.73         0.61
  C_1205-C-29                 1.20      1.20      1.20      0.38         0.37
  C_1206-C-29                 1.20      1.20      1.20      1.26         1.18
  C_1207-C-29                 1.20      1.20      1.20      0.38         0.26
  C_1208-C-29                 1.18      1.18      1.20      0.01         0.01
  C_1209-C-29                 1.18      1.19      1.18      1.21         1.18
  C_1210-C-29                 1.16      1.16      1.19      0.01         0.01
  C_1211-C-29                 1.14      1.14      1.16      0.01         0.51
  C_1212-C-29                 1.12      1.12      1.14      1.05         1.05
  C_1213-C-29                 1.08      1.08      1.12      0.01         0.01
  C_1214-C-29                 0.78      0.78      0.88      0.01         0.01
  C_1215-C-29                 0.56      0.56      0.78      0.01         0.01
  C_1216-C-29                 0.01      0.01      0.25      0.01         0.01
  C_1222-C-29                 0.01      0.01      0.01      0.76         0.01
  C_1223-C-29                 0.01      0.01      0.01      0.01         0.01
  C_1235-C-30                 0.01      0.01      0.40      0.01         0.01
  C_1236-C-100                0.01      0.41      0.01      0.59         0.01
  C_1237-C-30                 0.01      0.01      0.46      0.51         0.01
  C_1238-C-30                 0.40      0.40      0.46      0.01         0.01
  C_1239-C-100                0.43      0.43      0.50      1.18         0.01
  C_1240-C-100                0.41      0.43      0.41      0.47         0.41
  C_1249-C-124                0.01      0.01      0.59      0.01         0.01
  C_1250-C-124                0.54      0.54      0.59      0.01         0.01
  C_1251-C-124                0.47      0.47      0.54      0.01         0.01
  C_1252-C-124                0.47      0.47      0.48      0.28         0.25
  C_1253-C-124                0.48      0.48      0.51      0.01         0.06
  C_1254-C-124                0.34      0.34      0.51      0.01         0.01
  C_1255-C-124                0.01      0.01      0.34      0.01         0.01
  C_1256-C-124                0.01      0.01      0.01      0.37         0.01
  C_1257-C-124                0.01      0.01     23.71      0.01         0.01
  C_1258-C-124               23.71     23.71     23.72      0.01         0.01
  C_1259-C-95                 0.01     23.74      0.01      0.07         0.01
  C_1260-C-85                23.72     23.72     23.72      0.06         2.58
  C_1261-C-85                23.72     23.72     23.72      0.01         0.01
  C_1262-C-85                23.71     23.71     23.72      0.01         0.01
  C_1263-C-85                 0.79      0.79     23.71      0.48         0.32
  C_1264-C-85                 0.72      0.77      0.79      0.54         0.54
  C_1265-C-85                 0.66      0.66      0.77      0.01         0.01
  C_1266-C-85                 0.51      0.51      0.66      0.36         0.34
  C_1267-C-85                 0.32      0.32      0.51      0.01         0.01
  C_1268-C-85                 0.25      0.25      0.32      0.01         0.01
  C_1269-C-85                 0.01      0.01      0.25      0.01         0.01
  C_1279-C-35                 0.01      0.01      0.01      0.98         0.01
  C_1280-C-35                 0.01      0.01      0.01      1.30         0.01
  C_1281-C-35                 0.01      0.01      0.60      0.76         0.01
  C_1282-C-35                 0.53      0.53      0.60      0.01         0.01
  C_1283-C-35                 0.01      0.01      0.53      0.01         0.01
  C_1284-C-35                 0.01      0.43      0.01      0.49         0.01
  C_1285-C-35                 0.01      0.01      0.43      0.01         0.01
  C_1286-C-35                 0.01      0.43      0.01      0.46         0.01
  C_1287-C-35                 0.01      0.01      0.43      0.01         0.01
  C_1288-C-35                 0.01      0.01      0.01      0.43         0.01
  C_1289-C-35                 0.01      0.01      0.01      0.34         0.01
  C_1291-C-35                 0.01      0.01      0.33      0.71         0.01
  C_1292-C-35                 0.01      0.01      0.33      0.01         0.01
  C_1293-C-35                 0.01      0.01      0.01      0.42         0.01
  C_1294-C-35                 0.01      0.01      0.01      0.49         0.01
  C_1295-C-35                 0.01      0.01      0.01      0.55         0.01
  C_1296-C-35                 0.01      0.01      0.01      0.40         0.01
  C_1297-C-35                 0.01      0.01      0.01      0.35         0.01
  C_1298-C-35                 0.01      0.27      0.01      0.36         0.01
  C_1299-C-35                 0.21      0.21      0.27      0.01         0.01
  C_1300-C-35                 0.01      0.01      0.21      0.01         0.01
  C_1301-C-35                 0.01      0.01      0.01      0.01         0.01
  C_1304-C-35                 0.01      0.01      0.01      0.29         0.01
  C_1322-C-35                 0.01      0.01      0.01      0.45         0.01
  C_1325-C-42                 0.01      0.27      0.01      0.76         0.01
  C_1326-C-42                 0.21      0.21      0.27      0.01         0.01
  C_1327-C-42                 0.01      0.01      0.21      0.01         0.01
  C_1339-C-42                 0.01      0.01      0.07      0.01         0.01
  C_1340-C-42                 0.07      0.07      0.56      0.01         0.01
  C_1341-C-42                 0.55      0.56      0.65      0.01         0.01
  C_1342-C-42                 0.65      0.65      0.98      0.01         0.05
  C_1343-C-42                 0.98      0.98      1.13      0.01         0.15
  C_1344-C-42                 1.13      1.13      1.18      0.49         0.46
  C_1345-C-42                 1.18      1.18      1.32      0.01         0.01
  C_1346-C-42                 1.32      1.32      1.34      0.01         0.02
  C_1347-C-42                 1.34      1.35      1.34      1.00         0.37
  C_1348-C-42                 1.34      1.35      1.35      1.07         0.35
  C_1349-C-42                 1.35      1.35      1.51      0.01         0.01
  C_1350-C-89                 2.00      2.00      2.03      0.03         0.17
  C_1351-C-89                 2.02      2.02      2.03      1.16         0.36
  C_1352-C-89                 1.84      1.84      2.02      0.01         0.01
  C_1353-C-89                 1.66      1.66      1.84      0.51         0.50
  C_1354-C-89                 1.60      1.60      1.66      0.01         0.01
  C_1355-C-89                 1.50      1.50      1.60      0.01         0.01
  C_1356-C-89                 1.50      1.50      1.50      1.75         0.79
  C_1357-C-89                 1.37      1.37      1.50      0.01         0.01
  C_1358-C-89                 1.37      1.37      1.38      0.35         0.47
  C_1359-C-89                 1.35      1.38      1.35      1.45         1.33
  C_1360-C-89                 1.35      1.35      1.59      0.01         0.01
  C_1361-C-89                 1.59      1.59      9.58      0.01         0.01
  C_1362-C-89                 9.58      9.58     23.75      0.01         0.01
  C_1363-C-89                23.75     23.75     23.75      1.14         1.68
  C_1364-C-89                23.75     23.75     23.75      1.27         3.01
  C_1365-C-89                23.75     23.75     23.75      1.16         3.54
  C_1366-C-89                 2.57      2.57     23.75      0.01         0.01
  C_1367-C-89                 1.97      1.97      2.57      0.01         0.01
  C_1368-C-89                 1.59      1.59      1.97      0.01         0.01
  C_1369-C-89                 0.73      0.73      1.59      0.01         0.01
  C_1370-C-89                 0.67      0.67      0.73      0.01         0.01
  C_1371-C-89                 0.67      0.67      0.69      0.52         0.24
  C_1372-C-89                 0.69      0.69      0.77      0.01         0.01
  C_1373-C-89                 0.77      0.77      1.20      0.01         0.01
  C_1374-C-89                 1.20      1.20      1.74      0.01         0.01
  C_1375-C-89                 1.74      1.74      2.19      0.01         0.01
  C_1376-C-89                 2.19      2.19      2.28      0.01         0.01
  C_1377-C-89                 2.28      2.28      2.34      0.01         0.01
  C_1378-C-89                 2.34      2.34      2.37      0.93         0.99
  C_1379-C-141                2.34      2.34      2.46      0.01         0.01
  C_1380-C-141                2.31      2.31      2.34      0.01         0.13
  C_1381-C-141                2.31      2.31      2.38      0.01         0.01
  C_1382-C-141                2.34      2.34      2.38      0.01         0.01
  C_1383-C-141                2.27      2.27      2.34      0.01         0.01
  C_1384-C-141                2.18      2.18      2.27      0.01         0.01
  C_1385-C-141                2.10      2.10      2.18      0.64         0.65
  C_1386-C-141                1.91      1.91      2.10      0.01         0.01
  C_1387-C-141                0.81      0.81      1.91      0.01         0.01
  C_1388-C-141                0.29      0.29      0.81      0.01         0.01
  C_1389-C-141                0.01      0.01      0.29      0.01         0.01
  C_1390-C-141                0.01      0.01      0.01      0.31         0.01
  C_1392-C-141                0.01      0.01      0.21      0.01         0.01
  C_1393-C-141                0.21      0.21      0.55      0.01         0.01
  C_1394-C-141                0.55      0.55      0.56      0.01         0.01
  C_1395-C-141                0.56      0.56      0.57      0.01         0.01
  C_1396-C-141                0.57      0.57      0.73      0.01         0.01
  C_1397-C-141                0.71      0.73      0.71      0.94         0.71
  C_1398-C-141                0.71      0.71      0.72      0.71         0.71
  C_1399-C-141                0.71      0.72      0.71      0.76         0.71
  C_1400-C-141                0.01      0.01      0.71      1.01         0.01
  C_1401-C-109                0.01      0.73      0.01      1.25         0.01
  C_1402-C-109                0.73      0.97      0.73      1.48         0.73
  C_1403-C-109                0.97      0.97      1.28      1.96         0.01
  C_1404-C-109                1.28      1.39      1.28      1.55         1.28
  C_1405-C-109                1.39      1.40      1.39      1.37         1.17
  C_1406-C-109                1.34      1.34      1.40      0.01         0.03
  C_1407-C-109                1.27      1.27      1.34      0.01         0.06
  C_1408-C-109                1.26      1.29      1.27      0.92         0.71
  C_1409-C-109                1.28      1.28      1.29      0.37         0.29
  C_1410-C-109                1.28      1.28      1.52      0.01         0.01
  C_1411-C-109                1.35      1.35      1.52      0.01         0.01
  C_1412-C-109                1.35      1.37      1.35      1.50         1.34
  C_1413-C-109                1.37      1.37      1.37      0.44         0.44
  C_1414-C-109                1.36      1.37      1.42      1.16         0.01
  C_1415-C-109                1.41      1.41      1.42      0.39         0.32
  C_1416-C-109                1.39      1.39      1.41      0.01         0.08
  C_1417-C-109                1.39      1.39      1.43      0.55         0.01
  C_1418-C-109                1.43      1.43      1.46      1.09         0.01
  C_1419-C-109                1.31      1.31      1.34      0.01         0.01
  C_1420-C-109                1.25      1.25      1.31      0.01         0.01
  C_1421-C-109                1.18      1.18      1.25      0.01         0.01
  C_1422-C-109                0.32      0.32      1.18      0.01         0.01
  C_1423-C-109                0.01      0.01      0.32      0.01         0.01
  

  Analysis begun on:  Sat Oct 18 17:22:18 2025
  Analysis ended on:  Sat Oct 18 17:23:00 2025
  Total elapsed time: 00:00:42